
     RDKit          2D

 47 58  0  0  0  0  0  0  0  0999 V2000
    1.2170    1.9902    0.0000 C   0  0  0  0  0  0  0  0  0  0  0  0
    2.6265    1.4772    0.0000 C   0  0  0  0  0  0  0  0  0  0  0  0
    3.7756    0.5130    0.0000 B   0  0  0  0  0  0  0  0  0  0  0  0
    2.3660    0.0000    0.0000 C   0  0  0  0  0  0  0  0  0  0  0  0
    0.8660    0.0000    0.0000 N   0  0  0  0  0  0  0  0  0  0  0  0
   -0.4330    0.7500    0.0000 C   0  0  0  0  0  0  0  0  0  0  0  0
   -1.1830    2.0490    0.0000 N   0  0  0  0  0  0  0  0  0  0  0  0
   -0.4330    3.3481    0.0000 O   0  0  0  0  0  0  0  0  0  0  0  0
   -1.1830    4.6471    0.0000 C   0  0  0  0  0  0  0  0  0  0  0  0
   -0.0339    5.6113    0.0000 C   0  0  0  0  0  0  0  0  0  0  0  0
   -0.2944    7.0885    0.0000 C   0  0  0  0  0  0  0  0  0  0  0  0
   -1.4435    6.1243    0.0000 C   0  0  0  0  0  0  0  0  0  0  0  0
   -0.4330   -0.7500    0.0000 C   0  0  0  0  0  0  0  0  0  0  0  0
   -0.4330   -2.2500    0.0000 N   0  0  0  0  0  0  0  0  0  0  0  0
   -1.1830   -3.5490    0.0000 C   0  0  0  0  0  0  0  0  0  0  0  0
   -2.4821   -2.7990    0.0000 C   0  0  0  0  0  0  0  0  0  0  0  0
   -3.2321   -1.5000    0.0000 C   0  0  0  0  0  0  0  0  0  0  0  0
   -3.9821   -0.2010    0.0000 N   0  0  0  0  0  0  0  0  0  0  0  0
   -4.7321   -1.5000    0.0000 C   0  0  0  0  0  0  0  0  0  0  0  0
   -6.2321   -1.5000    0.0000 C   0  0  0  0  0  0  0  0  0  0  0  0
   -7.6993   -1.1881    0.0000 C   0  0  0  0  0  0  0  0  0  0  0  0
   -7.8561    0.3037    0.0000 C   0  0  0  0  0  0  0  0  0  0  0  0
   -6.4857    0.9138    0.0000 C   0  0  0  0  0  0  0  0  0  0  0  0
   -6.3290   -0.5780    0.0000 C   0  0  0  0  0  0  0  0  0  0  0  0
   -5.4821   -0.2010    0.0000 C   0  0  0  0  0  0  0  0  0  0  0  0
   -1.7321   -1.5000    0.0000 C   0  0  0  0  0  0  0  0  0  0  0  0
    0.4620    0.8711    0.0000 H   0  0  0  0  0  0  0  0  0  0  0  0
    1.7300    3.3998    0.0000 H   0  0  0  0  0  0  0  0  0  0  0  0
    0.2097    2.6697    0.0000 H   0  0  0  0  0  0  0  0  0  0  0  0
    3.3765    2.7762    0.0000 H   0  0  0  0  0  0  0  0  0  0  0  0
    5.2528    0.2526    0.0000 H   0  0  0  0  0  0  0  0  0  0  0  0
    2.6265   -1.4772    0.0000 H   0  0  0  0  0  0  0  0  0  0  0  0
   -2.5926    4.1341    0.0000 H   0  0  0  0  0  0  0  0  0  0  0  0
    1.3756    5.0983    0.0000 H   0  0  0  0  0  0  0  0  0  0  0  0
    1.1151    7.6015    0.0000 H   0  0  0  0  0  0  0  0  0  0  0  0
   -1.0444    8.3875    0.0000 H   0  0  0  0  0  0  0  0  0  0  0  0
   -2.8530    6.6374    0.0000 H   0  0  0  0  0  0  0  0  0  0  0  0
   -1.9330   -4.8481    0.0000 H   0  0  0  0  0  0  0  0  0  0  0  0
    0.1160   -4.2990    0.0000 H   0  0  0  0  0  0  0  0  0  0  0  0
   -3.5427   -3.8597    0.0000 H   0  0  0  0  0  0  0  0  0  0  0  0
   -6.3888   -2.9918    0.0000 H   0  0  0  0  0  0  0  0  0  0  0  0
   -8.8140   -2.1918    0.0000 H   0  0  0  0  0  0  0  0  0  0  0  0
   -9.3233   -0.0082    0.0000 H   0  0  0  0  0  0  0  0  0  0  0  0
   -8.3196    1.7302    0.0000 H   0  0  0  0  0  0  0  0  0  0  0  0
   -6.1739    2.3810    0.0000 H   0  0  0  0  0  0  0  0  0  0  0  0
   -5.5627   -0.7978    0.0000 H   0  0  0  0  0  0  0  0  0  0  0  0
   -5.5340   -1.8501    0.0000 H   0  0  0  0  0  0  0  0  0  0  0  0
  1  2  1  0
  2  3  1  0
  3  4  1  0
  4  5  1  0
  5  6  1  0
  6  7  2  3
  7  8  1  0
  8  9  1  0
  9 10  1  0
 10 11  1  0
 11 12  1  0
  6 13  1  0
 13 14  1  0
 14 15  1  0
 15 16  1  0
 16 17  1  0
 17 18  1  1
 19 18  1  6
 19 20  1  0
 20 21  1  0
 21 22  1  0
 22 23  1  0
 23 24  1  0
 23 25  1  0
 17 26  1  0
  4  2  1  0
 13  5  1  1
 26 14  1  6
 12  9  1  0
 26 13  1  0
 12 10  1  0
 26 16  1  0
 19 17  1  0
 25 20  1  0
 25 18  1  1
 25 19  1  0
 24 21  1  0
  1 27  1  0
  1 28  1  0
  1 29  1  0
  2 30  1  1
  3 31  1  0
  4 32  1  1
  9 33  1  1
 10 34  1  1
 11 35  1  0
 11 36  1  0
 12 37  1  1
 15 38  1  0
 15 39  1  0
 16 40  1  1
 20 41  1  1
 21 42  1  6
 22 43  1  0
 22 44  1  0
 23 45  1  6
 24 46  1  0
 24 47  1  0
M  END
$$$$
