
     RDKit          2D

 34 35  0  0  0  0  0  0  0  0999 V2000
    3.1820    2.1213    0.0000 C   0  0  0  0  0  0  0  0  0  0  0  0
    2.1213    1.0607    0.0000 C   0  0  0  0  0  0  0  0  0  0  0  0
    1.0607    0.0000    0.0000 C   0  0  0  0  0  0  0  0  0  0  0  0
   -0.0000   -1.0607    0.0000 S   0  0  0  0  0  0  0  0  0  0  0  0
   -1.0607    0.0000    0.0000 C   0  0  0  0  0  0  0  0  0  0  0  0
    0.0000    1.0607    0.0000 C   0  0  0  0  0  0  0  0  0  0  0  0
   -1.0607    2.1213    0.0000 C   0  0  0  0  0  0  0  0  0  0  0  0
    1.0607    2.1213    0.0000 C   0  0  0  0  0  0  0  0  0  0  0  0
    1.6946    3.4808    0.0000 C   0  0  0  0  0  0  0  0  0  0  0  0
    0.2003    3.3500    0.0000 C   0  0  0  0  0  0  0  0  0  0  0  0
   -0.1879    4.7989    0.0000 C   0  0  0  0  0  0  0  0  0  0  0  0
   -0.5762    6.2478    0.0000 C   0  0  0  0  0  0  0  0  0  0  0  0
   -0.9644    7.6967    0.0000 N   0  0  0  0  0  0  0  0  0  0  0  0
    4.2426    3.1820    0.0000 H   0  0  0  0  0  0  0  0  0  0  0  0
    4.2426    1.0607    0.0000 H   0  0  0  0  0  0  0  0  0  0  0  0
    2.4867    3.2785    0.0000 H   0  0  0  0  0  0  0  0  0  0  0  0
    1.7108    1.7440    0.0000 H   0  0  0  0  0  0  0  0  0  0  0  0
    3.1820    0.0000    0.0000 H   0  0  0  0  0  0  0  0  0  0  0  0
    2.1213   -1.0607    0.0000 H   0  0  0  0  0  0  0  0  0  0  0  0
   -2.1213   -1.0607    0.0000 H   0  0  0  0  0  0  0  0  0  0  0  0
   -2.2427    0.9235    0.0000 H   0  0  0  0  0  0  0  0  0  0  0  0
   -2.1213    3.1820    0.0000 H   0  0  0  0  0  0  0  0  0  0  0  0
   -0.2882    3.4071    0.0000 H   0  0  0  0  0  0  0  0  0  0  0  0
   -2.2427    1.1979    0.0000 H   0  0  0  0  0  0  0  0  0  0  0  0
    2.4611    1.5838    0.0000 H   0  0  0  0  0  0  0  0  0  0  0  0
    3.1435    3.0926    0.0000 H   0  0  0  0  0  0  0  0  0  0  0  0
    2.0065    4.9480    0.0000 H   0  0  0  0  0  0  0  0  0  0  0  0
   -1.2722    3.0639    0.0000 H   0  0  0  0  0  0  0  0  0  0  0  0
    1.2028    5.3609    0.0000 H   0  0  0  0  0  0  0  0  0  0  0  0
   -1.6368    4.4107    0.0000 H   0  0  0  0  0  0  0  0  0  0  0  0
   -2.0251    5.8596    0.0000 H   0  0  0  0  0  0  0  0  0  0  0  0
    0.8727    6.6361    0.0000 H   0  0  0  0  0  0  0  0  0  0  0  0
    0.0963    8.7574    0.0000 H   0  0  0  0  0  0  0  0  0  0  0  0
   -2.4133    8.0849    0.0000 H   0  0  0  0  0  0  0  0  0  0  0  0
  1  2  1  0
  2  3  1  0
  3  4  1  0
  4  5  1  0
  5  6  1  0
  6  7  1  0
  6  8  1  0
  8  9  1  0
  9 10  1  0
 10 11  1  0
 11 12  1  0
 12 13  1  0
  6  3  1  0
 10  8  1  0
  1 14  1  0
  1 15  1  0
  1 16  1  0
  2 17  1  0
  2 18  1  0
  3 19  1  0
  5 20  1  0
  5 21  1  0
  7 22  1  0
  7 23  1  0
  7 24  1  0
  8 25  1  0
  9 26  1  0
  9 27  1  0
 10 28  1  0
 11 29  1  0
 11 30  1  0
 12 31  1  0
 12 32  1  0
 13 33  1  0
 13 34  1  0
M  END
$$$$
