
     RDKit          2D

 99109  0  0  0  0  0  0  0  0999 V2000
    4.1283   -0.7793    0.0000 C   0  0  0  0  0  0  0  0  0  0  0  0
    2.9793    0.1849    0.0000 C   0  0  0  0  0  0  0  0  0  0  0  0
    1.8302    1.1491    0.0000 C   0  0  0  0  0  0  0  0  0  0  0  0
    0.6811    2.1132    0.0000 C   0  0  0  0  0  0  0  0  0  0  0  0
    0.8660    0.0000    0.0000 C   0  0  0  0  0  0  0  0  0  0  0  0
    1.8302   -1.1491    0.0000 C   0  0  0  0  0  0  0  0  0  0  0  0
   -0.4330    0.7500    0.0000 C   0  0  0  0  0  0  0  0  0  0  0  0
   -1.7321    1.5000    0.0000 C   0  0  0  0  0  0  0  0  0  0  0  0
   -3.0311    0.7500    0.0000 O   0  0  0  0  0  0  0  0  0  0  0  0
   -3.0311   -0.7500    0.0000 C   0  0  0  0  0  0  0  0  0  0  0  0
   -3.0311   -2.2500    0.0000 C   0  0  0  0  0  0  0  0  0  0  0  0
   -2.5181   -3.6595    0.0000 C   0  0  0  0  0  0  0  0  0  0  0  0
   -2.0050   -5.0691    0.0000 C   0  0  0  0  0  0  0  0  0  0  0  0
   -0.5955   -4.5560    0.0000 C   0  0  0  0  0  0  0  0  0  0  0  0
   -0.0825   -5.9656    0.0000 C   0  0  0  0  0  0  0  0  0  0  0  0
   -0.3429   -7.4428    0.0000 C   0  0  0  0  0  0  0  0  0  0  0  0
   -1.4920   -6.4786    0.0000 C   0  0  0  0  0  0  0  0  0  0  0  0
   -3.9276   -4.1726    0.0000 C   0  0  0  0  0  0  0  0  0  0  0  0
   -3.4146   -5.5821    0.0000 N   0  0  0  0  0  0  0  0  0  0  0  0
   -4.8241   -6.0951    0.0000 C   0  0  0  0  0  0  0  0  0  0  0  0
   -6.2336   -6.6082    0.0000 C   0  0  0  0  0  0  0  0  0  0  0  0
   -5.7206   -8.0177    0.0000 C   0  0  0  0  0  0  0  0  0  0  0  0
   -5.2076   -9.4272    0.0000 C   0  0  0  0  0  0  0  0  0  0  0  0
   -6.6171   -9.9403    0.0000 C   0  0  0  0  0  0  0  0  0  0  0  0
   -8.0267  -10.4533    0.0000 C   0  0  0  0  0  0  0  0  0  0  0  0
   -9.4362  -10.9663    0.0000 C   0  0  0  0  0  0  0  0  0  0  0  0
  -10.8457  -11.4794    0.0000 C   0  0  0  0  0  0  0  0  0  0  0  0
  -12.2553  -11.9924    0.0000 C   0  0  0  0  0  0  0  0  0  0  0  0
  -10.3327  -12.8889    0.0000 C   0  0  0  0  0  0  0  0  0  0  0  0
   -6.1041  -11.3498    0.0000 P   0  0  0  0  0  0  0  0  0  0  0  0
   -6.7380  -12.7093    0.0000 O   0  0  0  0  0  0  0  0  0  0  0  0
   -4.6946  -10.8368    0.0000 C   0  0  0  0  0  0  0  0  0  0  0  0
   -4.1815  -12.2463    0.0000 O   0  0  0  0  0  0  0  0  0  0  0  0
   -3.2850  -10.3238    0.0000 C   0  0  0  0  0  0  0  0  0  0  0  0
   -2.5350  -11.6228    0.0000 C   0  0  0  0  0  0  0  0  0  0  0  0
   -3.2850  -12.9218    0.0000 O   0  0  0  0  0  0  0  0  0  0  0  0
   -1.0350  -11.6228    0.0000 O   0  0  0  0  0  0  0  0  0  0  0  0
   -1.7850  -10.3238    0.0000 C   0  0  0  0  0  0  0  0  0  0  0  0
   -1.0350   -9.0247    0.0000 O   0  0  0  0  0  0  0  0  0  0  0  0
    0.4650   -9.0247    0.0000 O   0  0  0  0  0  0  0  0  0  0  0  0
   -6.7467   -5.1986    0.0000 C   0  0  0  0  0  0  0  0  0  0  0  0
   -6.4862   -3.7214    0.0000 C   0  0  0  0  0  0  0  0  0  0  0  0
   -5.3371   -4.6856    0.0000 C   0  0  0  0  0  0  0  0  0  0  0  0
   -1.7321   -1.5000    0.0000 C   0  0  0  0  0  0  0  0  0  0  0  0
   -0.4330   -0.7500    0.0000 C   0  0  0  0  0  0  0  0  0  0  0  0
    5.2774   -1.7435    0.0000 H   0  0  0  0  0  0  0  0  0  0  0  0
    5.0925    0.3698    0.0000 H   0  0  0  0  0  0  0  0  0  0  0  0
    3.4666   -1.7983    0.0000 H   0  0  0  0  0  0  0  0  0  0  0  0
    2.6299   -0.5316    0.0000 H   0  0  0  0  0  0  0  0  0  0  0  0
    3.9435    1.3340    0.0000 H   0  0  0  0  0  0  0  0  0  0  0  0
    2.7944    2.2981    0.0000 H   0  0  0  0  0  0  0  0  0  0  0  0
   -0.3418    3.2103    0.0000 H   0  0  0  0  0  0  0  0  0  0  0  0
    1.6453    3.2623    0.0000 H   0  0  0  0  0  0  0  0  0  0  0  0
   -0.1151    1.5348    0.0000 H   0  0  0  0  0  0  0  0  0  0  0  0
    2.4919   -2.1681    0.0000 H   0  0  0  0  0  0  0  0  0  0  0  0
    2.7148   -0.7177    0.0000 H   0  0  0  0  0  0  0  0  0  0  0  0
    0.8072   -2.2461    0.0000 H   0  0  0  0  0  0  0  0  0  0  0  0
   -0.0196    2.1919    0.0000 H   0  0  0  0  0  0  0  0  0  0  0  0
   -2.6962    2.6491    0.0000 H   0  0  0  0  0  0  0  0  0  0  0  0
   -0.9151    2.7580    0.0000 H   0  0  0  0  0  0  0  0  0  0  0  0
   -1.5757   -0.3870    0.0000 H   0  0  0  0  0  0  0  0  0  0  0  0
   -4.5083   -2.5105    0.0000 H   0  0  0  0  0  0  0  0  0  0  0  0
   -1.0565   -3.3222    0.0000 H   0  0  0  0  0  0  0  0  0  0  0  0
   -0.7615   -4.2302    0.0000 H   0  0  0  0  0  0  0  0  0  0  0  0
    0.8140   -4.0430    0.0000 H   0  0  0  0  0  0  0  0  0  0  0  0
    0.2434   -5.7996    0.0000 H   0  0  0  0  0  0  0  0  0  0  0  0
    1.4118   -5.8349    0.0000 H   0  0  0  0  0  0  0  0  0  0  0  0
    1.1186   -7.7802    0.0000 H   0  0  0  0  0  0  0  0  0  0  0  0
   -1.3850   -8.5218    0.0000 H   0  0  0  0  0  0  0  0  0  0  0  0
   -2.7207   -7.3390    0.0000 H   0  0  0  0  0  0  0  0  0  0  0  0
   -3.0887   -5.4161    0.0000 H   0  0  0  0  0  0  0  0  0  0  0  0
   -2.2489   -6.5262    0.0000 H   0  0  0  0  0  0  0  0  0  0  0  0
   -4.1431   -7.4316    0.0000 H   0  0  0  0  0  0  0  0  0  0  0  0
   -7.6432   -7.1212    0.0000 H   0  0  0  0  0  0  0  0  0  0  0  0
   -7.1822   -8.3551    0.0000 H   0  0  0  0  0  0  0  0  0  0  0  0
   -4.2591   -7.6803    0.0000 H   0  0  0  0  0  0  0  0  0  0  0  0
   -3.8711   -8.7462    0.0000 H   0  0  0  0  0  0  0  0  0  0  0  0
   -7.2981   -8.6038    0.0000 H   0  0  0  0  0  0  0  0  0  0  0  0
   -7.5136  -11.8628    0.0000 H   0  0  0  0  0  0  0  0  0  0  0  0
   -8.5397   -9.0438    0.0000 H   0  0  0  0  0  0  0  0  0  0  0  0
   -9.9492   -9.5568    0.0000 H   0  0  0  0  0  0  0  0  0  0  0  0
   -8.7552  -12.3028    0.0000 H   0  0  0  0  0  0  0  0  0  0  0  0
  -11.3588  -10.0698    0.0000 H   0  0  0  0  0  0  0  0  0  0  0  0
  -13.6648  -12.5054    0.0000 H   0  0  0  0  0  0  0  0  0  0  0  0
  -12.7683  -10.5829    0.0000 H   0  0  0  0  0  0  0  0  0  0  0  0
  -11.9179  -13.4540    0.0000 H   0  0  0  0  0  0  0  0  0  0  0  0
   -9.8197  -14.2984    0.0000 H   0  0  0  0  0  0  0  0  0  0  0  0
  -11.6692  -13.5699    0.0000 H   0  0  0  0  0  0  0  0  0  0  0  0
   -8.8711  -12.5515    0.0000 H   0  0  0  0  0  0  0  0  0  0  0  0
   -5.8777  -13.9380    0.0000 H   0  0  0  0  0  0  0  0  0  0  0  0
   -5.1457  -13.3954    0.0000 H   0  0  0  0  0  0  0  0  0  0  0  0
   -3.3635   -8.8258    0.0000 H   0  0  0  0  0  0  0  0  0  0  0  0
   -2.5350  -14.2209    0.0000 H   0  0  0  0  0  0  0  0  0  0  0  0
    1.3677   -7.8268    0.0000 H   0  0  0  0  0  0  0  0  0  0  0  0
   -8.2410   -5.3294    0.0000 H   0  0  0  0  0  0  0  0  0  0  0  0
   -7.8957   -3.2084    0.0000 H   0  0  0  0  0  0  0  0  0  0  0  0
   -5.7362   -2.4224    0.0000 H   0  0  0  0  0  0  0  0  0  0  0  0
   -0.8293   -2.6979    0.0000 H   0  0  0  0  0  0  0  0  0  0  0  0
    0.1530   -2.1308    0.0000 H   0  0  0  0  0  0  0  0  0  0  0  0
  1  2  1  0
  2  3  1  0
  3  4  1  0
  3  5  1  0
  5  6  1  0
  5  7  1  0
  7  8  1  0
  8  9  1  0
  9 10  1  0
 10 11  1  0
 11 12  1  0
 12 13  1  0
 13 14  1  0
 14 15  1  0
 15 16  1  0
 16 17  1  0
 12 18  1  0
 18 19  1  0
 19 20  1  0
 20 21  1  0
 21 22  1  0
 22 23  1  0
 23 24  1  0
 24 25  1  0
 25 26  1  0
 26 27  1  0
 27 28  1  0
 27 29  1  0
 24 30  1  0
 30 31  1  0
 30 32  1  0
 32 33  1  0
 32 34  1  0
 34 35  1  0
 35 36  1  0
 35 37  1  0
 37 38  1  0
 38 39  1  0
 39 40  1  0
 21 41  1  0
 41 42  1  0
 42 43  1  0
 11 44  1  0
 44 45  1  0
 45  5  1  0
 45  7  1  0
 44 10  1  0
 17 13  1  0
 43 18  1  0
 17 15  1  0
 43 20  1  0
 32 23  1  0
 38 34  1  0
 43 41  1  0
 38 35  1  0
  1 46  1  0
  1 47  1  0
  1 48  1  0
  2 49  1  0
  2 50  1  0
  3 51  1  0
  4 52  1  0
  4 53  1  0
  4 54  1  0
  6 55  1  0
  6 56  1  0
  6 57  1  0
  7 58  1  0
  8 59  1  0
  8 60  1  0
 10 61  1  0
 11 62  1  0
 12 63  1  0
 13 64  1  0
 14 65  1  0
 14 66  1  0
 15 67  1  0
 16 68  1  0
 16 69  1  0
 17 70  1  0
 18 71  1  0
 19 72  1  0
 20 73  1  0
 21 74  1  0
 22 75  1  0
 22 76  1  0
 23 77  1  0
 24 78  1  0
 25 79  1  0
 25 80  1  0
 26 81  1  0
 26 82  1  0
 27 83  1  0
 28 84  1  0
 28 85  1  0
 28 86  1  0
 29 87  1  0
 29 88  1  0
 29 89  1  0
 31 90  1  0
 33 91  1  0
 34 92  1  0
 36 93  1  0
 40 94  1  0
 41 95  1  0
 42 96  1  0
 42 97  1  0
 44 98  1  0
 45 99  1  0
M  END
$$$$
