
     RDKit          2D

 19 19  0  0  0  0  0  0  0  0999 V2000
    0.3882    4.6309    0.0000 O   0  0  0  0  0  0  0  0  0  0  0  0
    1.4489    3.5702    0.0000 O   0  0  0  0  0  0  0  0  0  0  0  0
    1.0607    2.1213    0.0000 As  0  0  0  0  0  3  0  0  0  0  0  0
    2.1213    1.0607    0.0000 C   0  0  0  0  0  0  0  0  0  0  0  0
    3.1820    2.1213    0.0000 O   0  0  0  0  0  0  0  0  0  0  0  0
    3.1820    0.0000    0.0000 O   0  0  0  0  0  0  0  0  0  0  0  0
    3.9211    0.2986    0.0000 Br  0  0  0  0  0  0  0  0  0  0  0  0
    1.0607   -0.0000    0.0000 C   0  0  0  0  0  0  0  0  0  0  0  0
    0.0000   -1.0607    0.0000 O   0  0  0  0  0  0  0  0  0  0  0  0
    1.0607   -2.1213    0.0000 C   0  0  0  0  0  0  0  0  0  0  0  0
    2.1213   -1.0607    0.0000 N   0  0  0  0  0  0  0  0  0  0  0  0
    3.6213   -1.0607    0.0000 O   0  0  0  0  0  0  0  0  0  0  0  0
    0.7765    6.0798    0.0000 H   0  0  0  0  0  0  0  0  0  0  0  0
   -0.4247    1.9126    0.0000 H   0  0  0  0  0  0  0  0  0  0  0  0
    4.6309    1.7331    0.0000 H   0  0  0  0  0  0  0  0  0  0  0  0
   -0.1214    0.9235    0.0000 H   0  0  0  0  0  0  0  0  0  0  0  0
    0.0000   -3.1820    0.0000 H   0  0  0  0  0  0  0  0  0  0  0  0
    2.1213   -3.1820    0.0000 H   0  0  0  0  0  0  0  0  0  0  0  0
    4.1544   -0.3533    0.0000 H   0  0  0  0  0  0  0  0  0  0  0  0
  1  2  1  0
  2  3  1  0
  3  4  1  0
  4  5  1  0
  4  6  1  0
  6  7  1  0
  4  8  1  0
  8  9  1  0
  9 10  1  0
 10 11  1  0
 11 12  1  0
 11  8  1  0
  1 13  1  0
  3 14  1  0
  5 15  1  0
  8 16  1  0
 10 17  1  0
 10 18  1  0
 12 19  1  0
M  END
$$$$
