
     RDKit          2D

 36 40  0  0  0  0  0  0  0  0999 V2000
   -6.4388   -0.9570    0.0000 C   0  0  0  0  0  0  0  0  0  0  0  0
   -5.0292   -0.4440    0.0000 C   0  0  0  0  0  0  0  0  0  0  0  0
   -4.7688    1.0333    0.0000 C   0  0  0  0  0  0  0  0  0  0  0  0
   -4.5083    2.5105    0.0000 C   0  0  0  0  0  0  0  0  0  0  0  0
   -4.2478    3.9877    0.0000 C   0  0  0  0  0  0  0  0  0  0  0  0
   -3.9874    5.4649    0.0000 C   0  0  0  0  0  0  0  0  0  0  0  0
   -3.7269    6.9421    0.0000 C   0  0  0  0  0  0  0  0  0  0  0  0
   -3.4664    8.4193    0.0000 C   0  0  0  0  0  0  0  0  0  0  0  0
   -5.2041    7.2026    0.0000 C   0  0  0  0  0  0  0  0  0  0  0  0
   -3.0311    2.2500    0.0000 C   0  0  0  0  0  0  0  0  0  0  0  0
   -3.0311    0.7500    0.0000 C   0  0  0  0  0  0  0  0  0  0  0  0
   -1.7321    1.5000    0.0000 C   0  0  0  0  0  0  0  0  0  0  0  0
   -0.4330    0.7500    0.0000 C   0  0  0  0  0  0  0  0  0  0  0  0
    0.8660   -0.0000    0.0000 O   0  0  0  0  0  0  0  0  0  0  0  0
   -0.4330   -0.7500    0.0000 C   0  0  0  0  0  0  0  0  0  0  0  0
   -1.7321    0.0000    0.0000 C   0  0  0  0  0  0  0  0  0  0  0  0
   -6.6993   -2.4342    0.0000 H   0  0  0  0  0  0  0  0  0  0  0  0
   -7.5879    0.0072    0.0000 H   0  0  0  0  0  0  0  0  0  0  0  0
   -3.8802   -1.4081    0.0000 H   0  0  0  0  0  0  0  0  0  0  0  0
   -3.8697    0.6329    0.0000 H   0  0  0  0  0  0  0  0  0  0  0  0
   -6.2460    1.2937    0.0000 H   0  0  0  0  0  0  0  0  0  0  0  0
   -5.9855    2.7709    0.0000 H   0  0  0  0  0  0  0  0  0  0  0  0
   -5.7250    4.2482    0.0000 H   0  0  0  0  0  0  0  0  0  0  0  0
   -2.8997    3.9171    0.0000 H   0  0  0  0  0  0  0  0  0  0  0  0
   -2.5101    5.2044    0.0000 H   0  0  0  0  0  0  0  0  0  0  0  0
   -4.8719    5.5112    0.0000 H   0  0  0  0  0  0  0  0  0  0  0  0
   -2.2497    6.6816    0.0000 H   0  0  0  0  0  0  0  0  0  0  0  0
   -3.2059    9.8965    0.0000 H   0  0  0  0  0  0  0  0  0  0  0  0
   -1.9892    8.1588    0.0000 H   0  0  0  0  0  0  0  0  0  0  0  0
   -4.3134    8.6783    0.0000 H   0  0  0  0  0  0  0  0  0  0  0  0
   -6.6813    7.4631    0.0000 H   0  0  0  0  0  0  0  0  0  0  0  0
   -5.1578    8.0871    0.0000 H   0  0  0  0  0  0  0  0  0  0  0  0
   -5.4631    6.3556    0.0000 H   0  0  0  0  0  0  0  0  0  0  0  0
   -2.4182    3.4528    0.0000 H   0  0  0  0  0  0  0  0  0  0  0  0
   -4.3301    0.0000    0.0000 H   0  0  0  0  0  0  0  0  0  0  0  0
   -0.4330   -2.2500    0.0000 H   0  0  0  0  0  0  0  0  0  0  0  0
  1  2  2  3
  2  3  1  0
  3  4  1  0
  4  5  1  0
  5  6  1  0
  6  7  1  0
  7  8  1  0
  7  9  1  0
  4 10  1  0
 10 11  1  0
 11 12  1  0
 12 13  1  0
 13 14  1  0
 14 15  1  0
 15 16  1  0
 12 10  1  0
 15 13  1  0
 16 11  1  0
 16 12  1  0
 16 13  1  0
  1 17  1  0
  1 18  1  0
  2 19  1  0
  3 20  1  0
  3 21  1  0
  4 22  1  0
  5 23  1  0
  5 24  1  0
  6 25  1  0
  6 26  1  0
  7 27  1  0
  8 28  1  0
  8 29  1  0
  8 30  1  0
  9 31  1  0
  9 32  1  0
  9 33  1  0
 10 34  1  0
 11 35  1  0
 15 36  1  0
M  END
$$$$
