
     RDKit          2D

105113  0  0  0  0  0  0  0  0999 V2000
   -2.0313   -6.5906    0.0000 C   0  0  0  0  0  0  0  0  0  0  0  0
   -1.0445   -7.7203    0.0000 C   0  0  0  0  0  0  0  0  0  0  0  0
   -1.5293   -9.1398    0.0000 C   0  0  0  0  0  0  0  0  0  0  0  0
    0.4273   -7.4304    0.0000 C   0  0  0  0  0  0  0  0  0  0  0  0
    1.8990   -7.1406    0.0000 O   0  0  0  0  0  0  0  0  0  0  0  0
    2.3838   -5.7211    0.0000 C   0  0  0  0  0  0  0  0  0  0  0  0
    2.8687   -4.3016    0.0000 C   0  0  0  0  0  0  0  0  0  0  0  0
    2.5789   -2.8299    0.0000 O   0  0  0  0  0  0  0  0  0  0  0  0
    3.7085   -1.8430    0.0000 C   0  0  0  0  0  0  0  0  0  0  0  0
    5.1280   -2.3279    0.0000 C   0  0  0  0  0  0  0  0  0  0  0  0
    5.4178   -3.7996    0.0000 C   0  0  0  0  0  0  0  0  0  0  0  0
    6.8373   -4.2845    0.0000 C   0  0  0  0  0  0  0  0  0  0  0  0
    8.1249   -5.0539    0.0000 C   0  0  0  0  0  0  0  0  0  0  0  0
    7.2252   -6.2540    0.0000 C   0  0  0  0  0  0  0  0  0  0  0  0
    9.2546   -4.0670    0.0000 C   0  0  0  0  0  0  0  0  0  0  0  0
   10.7170   -4.4008    0.0000 C   0  0  0  0  0  0  0  0  0  0  0  0
    8.6651   -2.6877    0.0000 C   0  0  0  0  0  0  0  0  0  0  0  0
    7.8017   -1.4611    0.0000 C   0  0  0  0  0  0  0  0  0  0  0  0
    7.1711   -2.8221    0.0000 C   0  0  0  0  0  0  0  0  0  0  0  0
    5.7516   -2.3372    0.0000 C   0  0  0  0  0  0  0  0  0  0  0  0
    4.3322   -1.8524    0.0000 C   0  0  0  0  0  0  0  0  0  0  0  0
    5.3021   -0.7082    0.0000 C   0  0  0  0  0  0  0  0  0  0  0  0
    5.6795    0.7436    0.0000 C   0  0  0  0  0  0  0  0  0  0  0  0
    5.3897    2.2153    0.0000 C   0  0  0  0  0  0  0  0  0  0  0  0
    4.4900    3.4155    0.0000 C   0  0  0  0  0  0  0  0  0  0  0  0
    3.1586    4.1065    0.0000 C   0  0  0  0  0  0  0  0  0  0  0  0
    1.6593    4.1515    0.0000 C   0  0  0  0  0  0  0  0  0  0  0  0
    0.2889    3.5414    0.0000 C   0  0  0  0  0  0  0  0  0  0  0  0
   -0.6810    2.3972    0.0000 N   0  0  0  0  0  0  0  0  0  0  0  0
   -2.1625    2.1625    0.0000 C   0  0  0  0  0  0  0  0  0  0  0  0
   -2.3972    0.6810    0.0000 C   0  0  0  0  0  0  0  0  0  0  0  0
   -3.8461    1.0692    0.0000 C   0  0  0  0  0  0  0  0  0  0  0  0
   -1.0607    0.0000    0.0000 C   0  0  0  0  0  0  0  0  0  0  0  0
    0.0000   -1.0607    0.0000 C   0  0  0  0  0  0  0  0  0  0  0  0
    1.0607    0.0000    0.0000 C   0  0  0  0  0  0  0  0  0  0  0  0
    0.0000    1.0607    0.0000 C   0  0  0  0  0  0  0  0  0  0  0  0
    1.4625   -2.4175    0.0000 N   0  0  0  0  0  0  0  0  0  0  0  0
    2.9618   -2.4624    0.0000 C   0  0  0  0  0  0  0  0  0  0  0  0
    4.2882   -4.7865    0.0000 C   0  0  0  0  0  0  0  0  0  0  0  0
    3.8033   -6.2060    0.0000 C   0  0  0  0  0  0  0  0  0  0  0  0
    6.0277   -1.1277    0.0000 C   0  0  0  0  0  0  0  0  0  0  0  0
    5.1643    0.0989    0.0000 C   0  0  0  0  0  0  0  0  0  0  0  0
    3.7310   -0.3432    0.0000 C   0  0  0  0  0  0  0  0  0  0  0  0
    3.4411    1.1285    0.0000 C   0  0  0  0  0  0  0  0  0  0  0  0
    3.1513    2.6003    0.0000 C   0  0  0  0  0  0  0  0  0  0  0  0
   -3.5031   -6.8805    0.0000 H   0  0  0  0  0  0  0  0  0  0  0  0
   -1.5465   -5.1712    0.0000 H   0  0  0  0  0  0  0  0  0  0  0  0
   -2.0142  -10.5592    0.0000 H   0  0  0  0  0  0  0  0  0  0  0  0
   -2.9488   -8.6549    0.0000 H   0  0  0  0  0  0  0  0  0  0  0  0
   -0.1098   -9.6246    0.0000 H   0  0  0  0  0  0  0  0  0  0  0  0
    0.1374   -5.9587    0.0000 H   0  0  0  0  0  0  0  0  0  0  0  0
    0.7171   -8.9022    0.0000 H   0  0  0  0  0  0  0  0  0  0  0  0
    0.9644   -5.2363    0.0000 H   0  0  0  0  0  0  0  0  0  0  0  0
    1.3710   -4.3839    0.0000 H   0  0  0  0  0  0  0  0  0  0  0  0
    6.0455   -5.5585    0.0000 H   0  0  0  0  0  0  0  0  0  0  0  0
    9.2245   -6.0741    0.0000 H   0  0  0  0  0  0  0  0  0  0  0  0
    6.3254   -7.4542    0.0000 H   0  0  0  0  0  0  0  0  0  0  0  0
    8.4254   -7.1538    0.0000 H   0  0  0  0  0  0  0  0  0  0  0  0
    5.9243   -5.5073    0.0000 H   0  0  0  0  0  0  0  0  0  0  0  0
   11.7372   -3.3012    0.0000 H   0  0  0  0  0  0  0  0  0  0  0  0
   11.1591   -5.8342    0.0000 H   0  0  0  0  0  0  0  0  0  0  0  0
    9.9752   -1.9572    0.0000 H   0  0  0  0  0  0  0  0  0  0  0  0
    8.8597   -0.3978    0.0000 H   0  0  0  0  0  0  0  0  0  0  0  0
    7.2854   -0.0527    0.0000 H   0  0  0  0  0  0  0  0  0  0  0  0
    6.5656   -1.0773    0.0000 H   0  0  0  0  0  0  0  0  0  0  0  0
    4.9377   -3.5972    0.0000 H   0  0  0  0  0  0  0  0  0  0  0  0
    4.5816   -3.3315    0.0000 H   0  0  0  0  0  0  0  0  0  0  0  0
    6.7584   -0.3489    0.0000 H   0  0  0  0  0  0  0  0  0  0  0  0
    6.3114   -1.8178    0.0000 H   0  0  0  0  0  0  0  0  0  0  0  0
    6.9436    1.5511    0.0000 H   0  0  0  0  0  0  0  0  0  0  0  0
    7.0703    0.1817    0.0000 H   0  0  0  0  0  0  0  0  0  0  0  0
    6.3279    3.3857    0.0000 H   0  0  0  0  0  0  0  0  0  0  0  0
    6.8872    2.1293    0.0000 H   0  0  0  0  0  0  0  0  0  0  0  0
    4.8275    4.8771    0.0000 H   0  0  0  0  0  0  0  0  0  0  0  0
    5.8765    3.9878    0.0000 H   0  0  0  0  0  0  0  0  0  0  0  0
    2.8286    5.5698    0.0000 H   0  0  0  0  0  0  0  0  0  0  0  0
    4.1595    5.2238    0.0000 H   0  0  0  0  0  0  0  0  0  0  0  0
    0.7270    5.3266    0.0000 H   0  0  0  0  0  0  0  0  0  0  0  0
    2.0763    5.5923    0.0000 H   0  0  0  0  0  0  0  0  0  0  0  0
   -1.1305    4.0262    0.0000 H   0  0  0  0  0  0  0  0  0  0  0  0
    0.0395    5.0205    0.0000 H   0  0  0  0  0  0  0  0  0  0  0  0
   -2.2410    3.6605    0.0000 H   0  0  0  0  0  0  0  0  0  0  0  0
   -3.6397    2.4230    0.0000 H   0  0  0  0  0  0  0  0  0  0  0  0
   -2.9347   -0.7194    0.0000 H   0  0  0  0  0  0  0  0  0  0  0  0
   -5.2949    1.4574    0.0000 H   0  0  0  0  0  0  0  0  0  0  0  0
   -4.2343   -0.3797    0.0000 H   0  0  0  0  0  0  0  0  0  0  0  0
   -3.6373    2.5546    0.0000 H   0  0  0  0  0  0  0  0  0  0  0  0
   -1.9423   -1.2135    0.0000 H   0  0  0  0  0  0  0  0  0  0  0  0
   -0.0000   -2.5607    0.0000 H   0  0  0  0  0  0  0  0  0  0  0  0
    1.9841    1.1820    0.0000 H   0  0  0  0  0  0  0  0  0  0  0  0
    1.9841   -1.1820    0.0000 H   0  0  0  0  0  0  0  0  0  0  0  0
    1.0970    2.0837    0.0000 H   0  0  0  0  0  0  0  0  0  0  0  0
    0.9109   -3.8124    0.0000 H   0  0  0  0  0  0  0  0  0  0  0  0
    3.8941   -3.6376    0.0000 H   0  0  0  0  0  0  0  0  0  0  0  0
    2.0560   -3.6581    0.0000 H   0  0  0  0  0  0  0  0  0  0  0  0
    4.4642   -7.5525    0.0000 H   0  0  0  0  0  0  0  0  0  0  0  0
    7.4884   -0.7866    0.0000 H   0  0  0  0  0  0  0  0  0  0  0  0
    6.5537    0.6642    0.0000 H   0  0  0  0  0  0  0  0  0  0  0  0
    4.7474    1.5398    0.0000 H   0  0  0  0  0  0  0  0  0  0  0  0
    2.2645   -0.6587    0.0000 H   0  0  0  0  0  0  0  0  0  0  0  0
    1.9450    1.0203    0.0000 H   0  0  0  0  0  0  0  0  0  0  0  0
    4.8666    1.5956    0.0000 H   0  0  0  0  0  0  0  0  0  0  0  0
    2.5139    3.9581    0.0000 H   0  0  0  0  0  0  0  0  0  0  0  0
    1.6552    2.4920    0.0000 H   0  0  0  0  0  0  0  0  0  0  0  0
    4.5091    3.2376    0.0000 H   0  0  0  0  0  0  0  0  0  0  0  0
  1  2  2  3
  2  3  1  0
  2  4  1  0
  4  5  1  0
  5  6  1  0
  6  7  1  0
  7  8  1  0
  8  9  1  0
  9 10  2  0
 10 11  1  0
 11 12  1  0
 12 13  1  0
 13 14  1  0
 13 15  1  0
 15 16  2  3
 15 17  1  0
 17 18  1  0
 18 19  1  0
 19 20  1  0
 20 21  1  0
 21 22  1  0
 22 23  1  0
 23 24  1  0
 24 25  1  0
 25 26  1  0
 26 27  1  0
 27 28  1  0
 28 29  1  0
 29 30  1  0
 30 31  1  0
 31 32  1  0
 31 33  1  0
 33 34  1  0
 34 35  1  0
 35 36  1  0
 34 37  1  0
 37 38  1  0
 11 39  2  0
 39 40  1  0
 40 41  1  0
 41 42  1  0
 42 43  1  0
 43 44  1  0
 44 45  1  0
 40  6  1  0
 39  7  1  0
 43  9  1  0
 41 10  1  0
 19 12  1  0
 38 21  1  0
 19 17  1  0
 36 29  1  0
 36 33  1  0
  1 46  1  0
  1 47  1  0
  3 48  1  0
  3 49  1  0
  3 50  1  0
  4 51  1  0
  4 52  1  0
  6 53  1  0
  7 54  1  0
 12 55  1  0
 13 56  1  0
 14 57  1  0
 14 58  1  0
 14 59  1  0
 16 60  1  0
 16 61  1  0
 17 62  1  0
 18 63  1  0
 18 64  1  0
 20 65  1  0
 20 66  1  0
 21 67  1  0
 22 68  1  0
 22 69  1  0
 23 70  1  0
 23 71  1  0
 24 72  1  0
 24 73  1  0
 25 74  1  0
 25 75  1  0
 26 76  1  0
 26 77  1  0
 27 78  1  0
 27 79  1  0
 28 80  1  0
 28 81  1  0
 30 82  1  0
 30 83  1  0
 31 84  1  0
 32 85  1  0
 32 86  1  0
 32 87  1  0
 33 88  1  0
 34 89  1  0
 35 90  1  0
 35 91  1  0
 36 92  1  0
 37 93  1  0
 38 94  1  0
 38 95  1  0
 40 96  1  0
 41 97  1  0
 42 98  1  0
 42 99  1  0
 43100  1  0
 44101  1  0
 44102  1  0
 45103  1  0
 45104  1  0
 45105  1  0
M  END
$$$$
