
     RDKit          2D

 62 64  0  0  0  0  0  0  0  0999 V2000
    2.1268   15.0368    0.0000 C   0  0  0  0  0  0  0  0  0  0  0  0
    1.6138   13.6273    0.0000 C   0  0  0  0  0  0  0  0  0  0  0  0
    2.5779   12.4782    0.0000 C   0  0  0  0  0  0  0  0  0  0  0  0
    2.0649   11.0687    0.0000 C   0  0  0  0  0  0  0  0  0  0  0  0
    3.3640   10.3187    0.0000 C   0  0  0  0  0  0  0  0  0  0  0  0
    4.4787    9.3150    0.0000 C   0  0  0  0  0  0  0  0  0  0  0  0
    3.8686    7.9447    0.0000 C   0  0  0  0  0  0  0  0  0  0  0  0
    2.3768    8.1015    0.0000 C   0  0  0  0  0  0  0  0  0  0  0  0
    0.8850    7.9447    0.0000 C   0  0  0  0  0  0  0  0  0  0  0  0
    2.3768    6.6015    0.0000 C   0  0  0  0  0  0  0  0  0  0  0  0
    2.3768    5.1015    0.0000 C   0  0  0  0  0  0  0  0  0  0  0  0
    1.0777    4.3515    0.0000 C   0  0  0  0  0  0  0  0  0  0  0  0
    1.0777    2.8515    0.0000 C   0  0  0  0  0  0  0  0  0  0  0  0
    1.0777    1.3515    0.0000 C   0  0  0  0  0  0  0  0  0  0  0  0
    1.7286    0.0000    0.0000 C   0  0  0  0  0  0  0  0  0  0  0  0
    1.0777   -1.3515    0.0000 C   0  0  0  0  0  0  0  0  0  0  0  0
   -0.3846   -1.6852    0.0000 C   0  0  0  0  0  0  0  0  0  0  0  0
   -1.5574   -0.7500    0.0000 C   0  0  0  0  0  0  0  0  0  0  0  0
   -1.5574    0.7500    0.0000 C   0  0  0  0  0  0  0  0  0  0  0  0
   -3.0198    0.4162    0.0000 C   0  0  0  0  0  0  0  0  0  0  0  0
   -0.3846    1.6852    0.0000 C   0  0  0  0  0  0  0  0  0  0  0  0
   -1.5574    2.6205    0.0000 C   0  0  0  0  0  0  0  0  0  0  0  0
   -2.7301    3.5557    0.0000 C   0  0  0  0  0  0  0  0  0  0  0  0
   -3.9029    4.4909    0.0000 O   0  0  0  0  0  0  0  0  0  0  0  0
   -1.7949    4.7285    0.0000 O   0  0  0  0  0  0  0  0  0  0  0  0
    2.0649    9.5687    0.0000 C   0  0  0  0  0  0  0  0  0  0  0  0
    2.6398   16.4464    0.0000 H   0  0  0  0  0  0  0  0  0  0  0  0
    0.7173   15.5498    0.0000 H   0  0  0  0  0  0  0  0  0  0  0  0
    3.5363   14.5238    0.0000 H   0  0  0  0  0  0  0  0  0  0  0  0
    0.1366   13.3668    0.0000 H   0  0  0  0  0  0  0  0  0  0  0  0
    4.0552   12.7387    0.0000 H   0  0  0  0  0  0  0  0  0  0  0  0
    0.5877   11.3291    0.0000 H   0  0  0  0  0  0  0  0  0  0  0  0
    4.2456   11.5322    0.0000 H   0  0  0  0  0  0  0  0  0  0  0  0
    5.3604   10.5285    0.0000 H   0  0  0  0  0  0  0  0  0  0  0  0
    5.7777    8.5650    0.0000 H   0  0  0  0  0  0  0  0  0  0  0  0
    5.2952    7.4811    0.0000 H   0  0  0  0  0  0  0  0  0  0  0  0
    3.7991    7.1505    0.0000 H   0  0  0  0  0  0  0  0  0  0  0  0
   -0.6068    7.7879    0.0000 H   0  0  0  0  0  0  0  0  0  0  0  0
    0.5475    9.4062    0.0000 H   0  0  0  0  0  0  0  0  0  0  0  0
    0.8588    6.4449    0.0000 H   0  0  0  0  0  0  0  0  0  0  0  0
    3.1680    6.5043    0.0000 H   0  0  0  0  0  0  0  0  0  0  0  0
    0.8880    6.4186    0.0000 H   0  0  0  0  0  0  0  0  0  0  0  0
    3.6758    4.3515    0.0000 H   0  0  0  0  0  0  0  0  0  0  0  0
   -0.2213    5.1015    0.0000 H   0  0  0  0  0  0  0  0  0  0  0  0
   -0.4111    3.0343    0.0000 H   0  0  0  0  0  0  0  0  0  0  0  0
    2.5777    2.8515    0.0000 H   0  0  0  0  0  0  0  0  0  0  0  0
    2.5401    1.6852    0.0000 H   0  0  0  0  0  0  0  0  0  0  0  0
    3.2286   -0.0000    0.0000 H   0  0  0  0  0  0  0  0  0  0  0  0
    2.0130   -2.5242    0.0000 H   0  0  0  0  0  0  0  0  0  0  0  0
   -0.7184   -3.1476    0.0000 H   0  0  0  0  0  0  0  0  0  0  0  0
   -2.8194   -1.5607    0.0000 H   0  0  0  0  0  0  0  0  0  0  0  0
   -2.3681    2.0120    0.0000 H   0  0  0  0  0  0  0  0  0  0  0  0
   -4.4822    0.0824    0.0000 H   0  0  0  0  0  0  0  0  0  0  0  0
   -3.5293    1.8270    0.0000 H   0  0  0  0  0  0  0  0  0  0  0  0
   -2.8668   -1.0760    0.0000 H   0  0  0  0  0  0  0  0  0  0  0  0
    0.0966    3.1059    0.0000 H   0  0  0  0  0  0  0  0  0  0  0  0
   -0.6222    3.7932    0.0000 H   0  0  0  0  0  0  0  0  0  0  0  0
   -2.6286    1.5705    0.0000 H   0  0  0  0  0  0  0  0  0  0  0  0
   -3.8014    2.5057    0.0000 H   0  0  0  0  0  0  0  0  0  0  0  0
   -3.6793    5.9742    0.0000 H   0  0  0  0  0  0  0  0  0  0  0  0
   -2.3429    6.1248    0.0000 H   0  0  0  0  0  0  0  0  0  0  0  0
    0.5651    9.5949    0.0000 H   0  0  0  0  0  0  0  0  0  0  0  0
  1  2  1  0
  2  3  2  3
  3  4  1  0
  4  5  1  0
  5  6  1  0
  6  7  1  0
  7  8  1  0
  8  9  1  6
  8 10  1  0
 10 11  1  0
 11 12  2  3
 12 13  1  0
 13 14  1  0
 14 15  1  0
 15 16  2  0
 16 17  1  0
 17 18  2  0
 18 19  1  0
 19 20  1  0
 19 21  1  0
 21 22  1  0
 22 23  1  0
 23 24  1  0
 23 25  1  0
  8 26  1  0
 26  4  1  0
 26  5  1  0
 21 14  1  0
  1 27  1  0
  1 28  1  0
  1 29  1  0
  2 30  1  0
  3 31  1  0
  4 32  1  6
  5 33  1  1
  6 34  1  0
  6 35  1  0
  7 36  1  0
  7 37  1  0
  9 38  1  0
  9 39  1  0
  9 40  1  0
 10 41  1  0
 10 42  1  0
 11 43  1  0
 12 44  1  0
 13 45  1  0
 13 46  1  0
 14 47  1  1
 15 48  1  0
 16 49  1  0
 17 50  1  0
 18 51  1  0
 19 52  1  6
 20 53  1  0
 20 54  1  0
 20 55  1  0
 21 56  1  1
 22 57  1  0
 22 58  1  0
 23 59  1  0
 24 60  1  0
 25 61  1  0
 26 62  1  1
M  END
$$$$
