
     RDKit          2D

 60 63  0  0  0  0  0  0  0  0999 V2000
   -1.6083    7.9363    0.0000 C   0  0  0  0  0  0  0  0  0  0  0  0
   -2.1213    6.5268    0.0000 C   0  0  0  0  0  0  0  0  0  0  0  0
   -2.6344    5.1172    0.0000 C   0  0  0  0  0  0  0  0  0  0  0  0
   -3.1474    3.7077    0.0000 C   0  0  0  0  0  0  0  0  0  0  0  0
   -3.6604    2.2981    0.0000 O   0  0  0  0  0  0  0  0  0  0  0  0
   -2.6962    1.1491    0.0000 C   0  0  0  0  0  0  0  0  0  0  0  0
   -1.7321    0.0000    0.0000 C   0  0  0  0  0  0  0  0  0  0  0  0
   -0.4330    0.7500    0.0000 C   0  0  0  0  0  0  0  0  0  0  0  0
   -0.4330    2.2500    0.0000 C   0  0  0  0  0  0  0  0  0  0  0  0
    0.8660    0.0000    0.0000 C   0  0  0  0  0  0  0  0  0  0  0  0
   -0.4330   -0.7500    0.0000 C   0  0  0  0  0  0  0  0  0  0  0  0
   -0.4330   -2.2500    0.0000 C   0  0  0  0  0  0  0  0  0  0  0  0
   -3.5309    7.0398    0.0000 C   0  0  0  0  0  0  0  0  0  0  0  0
   -4.9404    7.5528    0.0000 C   0  0  0  0  0  0  0  0  0  0  0  0
   -6.3499    8.0658    0.0000 C   0  0  0  0  0  0  0  0  0  0  0  0
   -7.7595    8.5789    0.0000 C   0  0  0  0  0  0  0  0  0  0  0  0
   -9.1690    9.0919    0.0000 C   0  0  0  0  0  0  0  0  0  0  0  0
  -10.5786    9.6049    0.0000 C   0  0  0  0  0  0  0  0  0  0  0  0
  -10.3181   11.0821    0.0000 C   0  0  0  0  0  0  0  0  0  0  0  0
  -11.4672   12.0463    0.0000 C   0  0  0  0  0  0  0  0  0  0  0  0
  -11.7276   10.5691    0.0000 C   0  0  0  0  0  0  0  0  0  0  0  0
  -13.1372   10.0561    0.0000 C   0  0  0  0  0  0  0  0  0  0  0  0
   -3.0178    8.4493    0.0000 O   0  0  0  0  0  0  0  0  0  0  0  0
   -3.9820    9.5984    0.0000 O   0  0  0  0  0  0  0  0  0  0  0  0
   -1.0953    9.3458    0.0000 H   0  0  0  0  0  0  0  0  0  0  0  0
   -2.2691    8.3821    0.0000 H   0  0  0  0  0  0  0  0  0  0  0  0
   -0.1988    7.4233    0.0000 H   0  0  0  0  0  0  0  0  0  0  0  0
   -0.7118    6.0137    0.0000 H   0  0  0  0  0  0  0  0  0  0  0  0
   -1.2248    4.6042    0.0000 H   0  0  0  0  0  0  0  0  0  0  0  0
   -4.0959    5.4546    0.0000 H   0  0  0  0  0  0  0  0  0  0  0  0
   -1.7378    3.1946    0.0000 H   0  0  0  0  0  0  0  0  0  0  0  0
   -4.5569    4.2207    0.0000 H   0  0  0  0  0  0  0  0  0  0  0  0
   -3.8453    0.1849    0.0000 H   0  0  0  0  0  0  0  0  0  0  0  0
   -1.6733    2.2461    0.0000 H   0  0  0  0  0  0  0  0  0  0  0  0
   -2.6962   -1.1491    0.0000 H   0  0  0  0  0  0  0  0  0  0  0  0
   -0.4330    3.7500    0.0000 H   0  0  0  0  0  0  0  0  0  0  0  0
    1.0670    2.2500    0.0000 H   0  0  0  0  0  0  0  0  0  0  0  0
   -1.9218    2.4328    0.0000 H   0  0  0  0  0  0  0  0  0  0  0  0
    1.8302    1.1491    0.0000 H   0  0  0  0  0  0  0  0  0  0  0  0
    1.8302   -1.1491    0.0000 H   0  0  0  0  0  0  0  0  0  0  0  0
   -0.4330   -3.7500    0.0000 H   0  0  0  0  0  0  0  0  0  0  0  0
   -1.9330   -2.2500    0.0000 H   0  0  0  0  0  0  0  0  0  0  0  0
    1.0670   -2.2500    0.0000 H   0  0  0  0  0  0  0  0  0  0  0  0
   -4.2119    5.7033    0.0000 H   0  0  0  0  0  0  0  0  0  0  0  0
   -4.7837    9.0446    0.0000 H   0  0  0  0  0  0  0  0  0  0  0  0
   -5.4534    6.1433    0.0000 H   0  0  0  0  0  0  0  0  0  0  0  0
   -6.8630    6.6563    0.0000 H   0  0  0  0  0  0  0  0  0  0  0  0
   -5.8369    9.4754    0.0000 H   0  0  0  0  0  0  0  0  0  0  0  0
   -7.2464    9.9884    0.0000 H   0  0  0  0  0  0  0  0  0  0  0  0
   -8.2725    7.1693    0.0000 H   0  0  0  0  0  0  0  0  0  0  0  0
   -9.6820    7.6824    0.0000 H   0  0  0  0  0  0  0  0  0  0  0  0
   -8.6560   10.5014    0.0000 H   0  0  0  0  0  0  0  0  0  0  0  0
  -11.3286    8.3059    0.0000 H   0  0  0  0  0  0  0  0  0  0  0  0
   -8.9085   11.5952    0.0000 H   0  0  0  0  0  0  0  0  0  0  0  0
  -10.7172   13.3454    0.0000 H   0  0  0  0  0  0  0  0  0  0  0  0
  -12.8767   12.5594    0.0000 H   0  0  0  0  0  0  0  0  0  0  0  0
  -14.5467    9.5431    0.0000 H   0  0  0  0  0  0  0  0  0  0  0  0
  -13.6502   11.4656    0.0000 H   0  0  0  0  0  0  0  0  0  0  0  0
  -12.6241    8.6465    0.0000 H   0  0  0  0  0  0  0  0  0  0  0  0
   -3.4690   11.0079    0.0000 H   0  0  0  0  0  0  0  0  0  0  0  0
  1  2  1  0
  2  3  1  0
  3  4  1  0
  4  5  1  0
  5  6  1  0
  6  7  1  0
  7  8  1  0
  8  9  1  1
  8 10  1  0
 10 11  1  0
 11 12  1  6
  2 13  1  0
 13 14  1  0
 14 15  1  0
 15 16  1  0
 16 17  1  0
 17 18  1  0
 18 19  1  0
 19 20  1  0
 20 21  1  0
 21 22  1  6
 13 23  1  0
 23 24  1  0
 11  7  1  0
 21 18  1  0
 11  8  1  0
 21 19  1  0
  1 25  1  0
  1 26  1  0
  1 27  1  0
  2 28  1  1
  3 29  1  0
  3 30  1  0
  4 31  1  0
  4 32  1  0
  6 33  1  0
  6 34  1  0
  7 35  1  0
  9 36  1  0
  9 37  1  0
  9 38  1  0
 10 39  1  0
 10 40  1  0
 12 41  1  0
 12 42  1  0
 12 43  1  0
 13 44  1  1
 14 45  1  0
 14 46  1  0
 15 47  1  0
 15 48  1  0
 16 49  1  0
 16 50  1  0
 17 51  1  0
 17 52  1  0
 18 53  1  1
 19 54  1  6
 20 55  1  0
 20 56  1  0
 22 57  1  0
 22 58  1  0
 22 59  1  0
 24 60  1  0
M  END
$$$$
