
     RDKit          2D

 40 46  0  0  0  0  0  0  0  0999 V2000
   -3.4651    5.6915    0.0000 C   0  0  0  0  0  0  0  0  0  0  0  0
   -3.8534    4.2426    0.0000 O   0  0  0  0  0  0  0  0  0  0  0  0
   -2.7927    3.1820    0.0000 C   0  0  0  0  0  0  0  0  0  0  0  0
   -1.7321    2.1213    0.0000 C   0  0  0  0  0  0  0  0  0  0  0  0
   -0.5179    0.3777    0.0000 C   0  0  0  0  0  0  0  0  0  0  0  0
    0.8660    0.0000    0.0000 C   0  0  0  0  0  0  0  0  0  0  0  0
   -0.4330    0.7500    0.0000 C   0  0  0  0  0  0  0  0  0  0  0  0
   -1.7321    0.0000    0.0000 C   0  0  0  0  0  0  0  0  0  0  0  0
   -2.4821   -1.2990    0.0000 C   0  0  0  0  0  0  0  0  0  0  0  0
   -3.2321   -2.5981    0.0000 C   0  0  0  0  0  0  0  0  0  0  0  0
   -1.9330   -3.3481    0.0000 C   0  0  0  0  0  0  0  0  0  0  0  0
   -0.6340   -4.0981    0.0000 C   0  0  0  0  0  0  0  0  0  0  0  0
    0.6651   -4.8481    0.0000 C   0  0  0  0  0  0  0  0  0  0  0  0
    1.9641   -4.0981    0.0000 C   0  0  0  0  0  0  0  0  0  0  0  0
    1.9641   -5.5981    0.0000 C   0  0  0  0  0  0  0  0  0  0  0  0
    0.6651   -6.3481    0.0000 C   0  0  0  0  0  0  0  0  0  0  0  0
   -1.1830   -2.0490    0.0000 C   0  0  0  0  0  0  0  0  0  0  0  0
   -0.4330   -0.7500    0.0000 C   0  0  0  0  0  0  0  0  0  0  0  0
   -3.0769    7.1404    0.0000 H   0  0  0  0  0  0  0  0  0  0  0  0
   -4.9140    6.0798    0.0000 H   0  0  0  0  0  0  0  0  0  0  0  0
   -2.0163    5.3033    0.0000 H   0  0  0  0  0  0  0  0  0  0  0  0
   -3.8534    2.1213    0.0000 H   0  0  0  0  0  0  0  0  0  0  0  0
   -1.7321    4.2426    0.0000 H   0  0  0  0  0  0  0  0  0  0  0  0
   -2.7927    1.0607    0.0000 H   0  0  0  0  0  0  0  0  0  0  0  0
   -0.6714    3.1820    0.0000 H   0  0  0  0  0  0  0  0  0  0  0  0
    0.2521    2.2427    0.0000 H   0  0  0  0  0  0  0  0  0  0  0  0
    2.3660    0.0000    0.0000 H   0  0  0  0  0  0  0  0  0  0  0  0
   -0.2502    2.2388    0.0000 H   0  0  0  0  0  0  0  0  0  0  0  0
   -3.7811   -0.5490    0.0000 H   0  0  0  0  0  0  0  0  0  0  0  0
   -3.9821   -3.8971    0.0000 H   0  0  0  0  0  0  0  0  0  0  0  0
   -4.5311   -1.8481    0.0000 H   0  0  0  0  0  0  0  0  0  0  0  0
   -2.6830   -4.6471    0.0000 H   0  0  0  0  0  0  0  0  0  0  0  0
   -1.3840   -5.3971    0.0000 H   0  0  0  0  0  0  0  0  0  0  0  0
    0.2688   -2.9001    0.0000 H   0  0  0  0  0  0  0  0  0  0  0  0
    1.4511   -2.6885    0.0000 H   0  0  0  0  0  0  0  0  0  0  0  0
    3.4413   -3.8376    0.0000 H   0  0  0  0  0  0  0  0  0  0  0  0
    3.2631   -6.3481    0.0000 H   0  0  0  0  0  0  0  0  0  0  0  0
    1.1781   -7.7576    0.0000 H   0  0  0  0  0  0  0  0  0  0  0  0
   -0.8121   -6.6085    0.0000 H   0  0  0  0  0  0  0  0  0  0  0  0
    0.1978   -2.6351    0.0000 H   0  0  0  0  0  0  0  0  0  0  0  0
  1  2  1  0
  2  3  1  0
  3  4  1  0
  4  5  1  0
  5  6  1  0
  6  7  1  0
  7  8  1  0
  8  9  1  0
  9 10  1  0
 10 11  1  0
 11 12  1  0
 12 13  1  0
 13 14  1  0
 14 15  1  0
 15 16  1  0
 11 17  1  0
 17 18  1  0
  8  5  1  0
 17  9  1  0
 18  6  1  0
 18  7  1  0
 18  8  1  0
 15 13  1  0
 16 13  1  0
  1 19  1  0
  1 20  1  0
  1 21  1  0
  3 22  1  0
  3 23  1  0
  4 24  1  0
  4 25  1  0
  5 26  1  0
  6 27  1  0
  7 28  1  0
  9 29  1  0
 10 30  1  0
 10 31  1  0
 11 32  1  0
 12 33  1  0
 12 34  1  0
 14 35  1  0
 14 36  1  0
 15 37  1  0
 16 38  1  0
 16 39  1  0
 17 40  1  0
M  END
$$$$
