
     RDKit          2D

 29 31  0  0  0  0  0  0  0  0999 V2000
   -8.5926   -1.5360    0.0000 C   0  0  0  0  0  0  0  0  0  0  0  0
   -7.0926   -1.5360    0.0000 C   0  0  0  0  0  0  0  0  0  0  0  0
   -5.5926   -1.5360    0.0000 C   0  0  0  0  0  0  0  0  0  0  0  0
   -5.3321   -3.0132    0.0000 C   0  0  0  0  0  0  0  0  0  0  0  0
   -4.1830   -2.0490    0.0000 C   0  0  0  0  0  0  0  0  0  0  0  0
   -3.0339   -3.0132    0.0000 O   0  0  0  0  0  0  0  0  0  0  0  0
   -3.4330   -0.7500    0.0000 N   0  0  0  0  0  0  0  0  0  0  0  0
   -1.9330   -0.7500    0.0000 C   0  0  0  0  0  0  0  0  0  0  0  0
   -1.9330    0.7500    0.0000 C   0  0  0  0  0  0  0  0  0  0  0  0
   -0.4330    0.7500    0.0000 C   0  0  0  0  0  0  0  0  0  0  0  0
    0.8660    0.0000    0.0000 C   0  0  0  0  0  0  0  0  0  0  0  0
   -0.4330   -0.7500    0.0000 C   0  0  0  0  0  0  0  0  0  0  0  0
  -10.0926   -1.5360    0.0000 H   0  0  0  0  0  0  0  0  0  0  0  0
   -8.5926   -3.0360    0.0000 H   0  0  0  0  0  0  0  0  0  0  0  0
   -8.5926   -0.0360    0.0000 H   0  0  0  0  0  0  0  0  0  0  0  0
   -7.0926   -0.0360    0.0000 H   0  0  0  0  0  0  0  0  0  0  0  0
   -7.2571   -2.8759    0.0000 H   0  0  0  0  0  0  0  0  0  0  0  0
   -5.3321   -0.0588    0.0000 H   0  0  0  0  0  0  0  0  0  0  0  0
   -4.5821   -4.3123    0.0000 H   0  0  0  0  0  0  0  0  0  0  0  0
   -6.5349   -3.6261    0.0000 H   0  0  0  0  0  0  0  0  0  0  0  0
   -3.2944   -4.4904    0.0000 H   0  0  0  0  0  0  0  0  0  0  0  0
   -4.3358    0.4479    0.0000 H   0  0  0  0  0  0  0  0  0  0  0  0
   -1.9330   -2.2500    0.0000 H   0  0  0  0  0  0  0  0  0  0  0  0
   -1.9330    2.2500    0.0000 H   0  0  0  0  0  0  0  0  0  0  0  0
   -3.4218    0.9328    0.0000 H   0  0  0  0  0  0  0  0  0  0  0  0
   -0.0448    2.1989    0.0000 H   0  0  0  0  0  0  0  0  0  0  0  0
    1.8302    1.1491    0.0000 H   0  0  0  0  0  0  0  0  0  0  0  0
    1.8302   -1.1491    0.0000 H   0  0  0  0  0  0  0  0  0  0  0  0
   -0.0448   -2.1989    0.0000 H   0  0  0  0  0  0  0  0  0  0  0  0
  1  2  1  0
  2  3  1  0
  3  4  1  0
  4  5  1  0
  5  6  1  6
  5  7  1  0
  7  8  1  0
  8  9  1  0
  9 10  1  0
 10 11  1  0
 11 12  1  0
  5  3  1  0
 12  8  1  0
 12 10  1  0
  1 13  1  0
  1 14  1  0
  1 15  1  0
  2 16  1  0
  2 17  1  0
  3 18  1  6
  4 19  1  0
  4 20  1  0
  6 21  1  0
  7 22  1  0
  8 23  1  6
  9 24  1  0
  9 25  1  0
 10 26  1  6
 11 27  1  0
 11 28  1  0
 12 29  1  6
M  END
$$$$
