
     RDKit          2D

 27 30  0  0  0  0  0  0  0  0999 V2000
   -5.8301   -3.0000    0.0000 C   0  0  0  0  0  0  0  0  0  0  0  0
   -4.5311   -2.2500    0.0000 O   0  0  0  0  0  0  0  0  0  0  0  0
   -4.5311   -0.7500    0.0000 C   0  0  0  0  0  0  0  0  0  0  0  0
   -4.5311    0.7500    0.0000 C   0  0  0  0  0  0  0  0  0  0  0  0
   -3.0311    2.2500    0.0000 C   0  0  0  0  0  0  0  0  0  0  0  0
   -1.7321    1.5000    0.0000 C   0  0  0  0  0  0  0  0  0  0  0  0
   -0.4330    0.7500    0.0000 N   0  0  0  0  0  0  0  0  0  0  0  0
    0.8660    0.0000    0.0000 C   0  0  0  0  0  0  0  0  0  0  0  0
   -0.4330   -0.7500    0.0000 C   0  0  0  0  0  0  0  0  0  0  0  0
   -1.3358    0.4479    0.0000 F   0  0  0  0  0  0  0  0  0  0  0  0
   -1.7321   -1.5000    0.0000 O   0  0  0  0  0  0  0  0  0  0  0  0
   -3.0311   -0.7500    0.0000 C   0  0  0  0  0  0  0  0  0  0  0  0
   -3.0311    0.7500    0.0000 C   0  0  0  0  0  0  0  0  0  0  0  0
   -1.9704   -0.3107    0.0000 N   0  0  0  0  0  0  0  0  0  0  0  0
   -7.1292   -3.7500    0.0000 H   0  0  0  0  0  0  0  0  0  0  0  0
   -5.0801   -4.2990    0.0000 H   0  0  0  0  0  0  0  0  0  0  0  0
   -6.5801   -1.7010    0.0000 H   0  0  0  0  0  0  0  0  0  0  0  0
   -6.0311   -0.7500    0.0000 H   0  0  0  0  0  0  0  0  0  0  0  0
   -5.5917    1.8107    0.0000 H   0  0  0  0  0  0  0  0  0  0  0  0
   -2.4450    3.6308    0.0000 H   0  0  0  0  0  0  0  0  0  0  0  0
   -4.3301    3.0000    0.0000 H   0  0  0  0  0  0  0  0  0  0  0  0
   -1.5492    2.9888    0.0000 H   0  0  0  0  0  0  0  0  0  0  0  0
    1.8302    1.1491    0.0000 H   0  0  0  0  0  0  0  0  0  0  0  0
    1.8302   -1.1491    0.0000 H   0  0  0  0  0  0  0  0  0  0  0  0
   -3.4193   -2.1989    0.0000 H   0  0  0  0  0  0  0  0  0  0  0  0
   -1.9843   -1.1077    0.0000 H   0  0  0  0  0  0  0  0  0  0  0  0
   -0.4850   -0.1019    0.0000 H   0  0  0  0  0  0  0  0  0  0  0  0
  1  2  1  0
  2  3  1  0
  3  4  1  0
  4  5  1  0
  5  6  1  0
  6  7  1  0
  7  8  1  0
  8  9  1  0
  9 10  1  1
  9 11  1  0
 11 12  1  0
 12 13  1  0
 13 14  1  6
 12  3  1  0
 13  4  1  0
 13  6  1  0
  9  7  1  0
  1 15  1  0
  1 16  1  0
  1 17  1  0
  3 18  1  6
  4 19  1  6
  5 20  1  0
  5 21  1  0
  6 22  1  6
  8 23  1  0
  8 24  1  0
 12 25  1  6
 14 26  1  0
 14 27  1  0
M  END
$$$$
