
     RDKit          2D

 28 30  0  0  0  0  0  0  0  0999 V2000
   -1.9330    2.2500    0.0000 C   0  0  0  0  0  0  0  0  0  0  0  0
   -1.9330    0.7500    0.0000 C   0  0  0  0  0  0  0  0  0  0  0  0
   -1.9330   -0.7500    0.0000 N   0  0  0  0  0  0  0  0  0  0  0  0
   -0.4330   -0.7500    0.0000 C   0  0  0  0  0  0  0  0  0  0  0  0
    0.7397   -1.6852    0.0000 C   0  0  0  0  0  0  0  0  0  0  0  0
    2.2021   -1.3515    0.0000 C   0  0  0  0  0  0  0  0  0  0  0  0
    2.8530   -0.0000    0.0000 C   0  0  0  0  0  0  0  0  0  0  0  0
    2.2021    1.3515    0.0000 C   0  0  0  0  0  0  0  0  0  0  0  0
    0.7397    1.6852    0.0000 C   0  0  0  0  0  0  0  0  0  0  0  0
   -0.4330    0.7500    0.0000 C   0  0  0  0  0  0  0  0  0  0  0  0
    0.8660    0.0000    0.0000 C   0  0  0  0  0  0  0  0  0  0  0  0
   -1.9330    3.7500    0.0000 H   0  0  0  0  0  0  0  0  0  0  0  0
   -3.4330    2.2500    0.0000 H   0  0  0  0  0  0  0  0  0  0  0  0
   -0.9562    2.3700    0.0000 H   0  0  0  0  0  0  0  0  0  0  0  0
   -3.4330    0.7500    0.0000 H   0  0  0  0  0  0  0  0  0  0  0  0
   -2.9937   -1.8107    0.0000 H   0  0  0  0  0  0  0  0  0  0  0  0
   -0.4330   -2.6205    0.0000 H   0  0  0  0  0  0  0  0  0  0  0  0
    1.2210   -3.1059    0.0000 H   0  0  0  0  0  0  0  0  0  0  0  0
    2.3850   -2.8403    0.0000 H   0  0  0  0  0  0  0  0  0  0  0  0
    3.6129   -1.8610    0.0000 H   0  0  0  0  0  0  0  0  0  0  0  0
    4.1310   -0.7853    0.0000 H   0  0  0  0  0  0  0  0  0  0  0  0
    4.1310    0.7853    0.0000 H   0  0  0  0  0  0  0  0  0  0  0  0
    3.6129    1.8610    0.0000 H   0  0  0  0  0  0  0  0  0  0  0  0
    2.3850    2.8403    0.0000 H   0  0  0  0  0  0  0  0  0  0  0  0
    1.2210    3.1059    0.0000 H   0  0  0  0  0  0  0  0  0  0  0  0
    0.0508    2.3881    0.0000 H   0  0  0  0  0  0  0  0  0  0  0  0
    1.7507    0.6427    0.0000 H   0  0  0  0  0  0  0  0  0  0  0  0
    1.7507   -0.6427    0.0000 H   0  0  0  0  0  0  0  0  0  0  0  0
  1  2  1  0
  2  3  1  0
  4  3  1  1
  4  5  1  0
  5  6  1  0
  6  7  1  0
  7  8  1  0
  8  9  1  0
 10  9  1  6
 10 11  1  0
 10  2  1  0
 10  4  1  0
 11  4  1  0
  1 12  1  0
  1 13  1  0
  1 14  1  0
  2 15  1  1
  3 16  1  0
  5 17  1  0
  5 18  1  0
  6 19  1  0
  6 20  1  0
  7 21  1  0
  7 22  1  0
  8 23  1  0
  8 24  1  0
  9 25  1  0
  9 26  1  0
 11 27  1  0
 11 28  1  0
M  END
$$$$
