
     RDKit          2D

 23 25  0  0  0  0  0  0  0  0999 V2000
   -1.4591    5.0691    0.0000 O   0  0  0  0  0  0  0  0  0  0  0  0
   -2.4233    3.9200    0.0000 N   0  0  0  0  0  0  0  0  0  0  0  0
   -1.9102    2.5105    0.0000 C   0  0  0  0  0  0  0  0  0  0  0  0
   -3.2093    1.7605    0.0000 C   0  0  0  0  0  0  0  0  0  0  0  0
   -1.9102    1.0105    0.0000 C   0  0  0  0  0  0  0  0  0  0  0  0
   -0.4330    0.7500    0.0000 C   0  0  0  0  0  0  0  0  0  0  0  0
    0.8660    0.0000    0.0000 C   0  0  0  0  0  0  0  0  0  0  0  0
   -0.4330   -0.7500    0.0000 C   0  0  0  0  0  0  0  0  0  0  0  0
   -0.4330   -2.2500    0.0000 C   0  0  0  0  0  0  0  0  0  0  0  0
   -1.7321   -1.5000    0.0000 C   0  0  0  0  0  0  0  0  0  0  0  0
   -1.9721    6.4786    0.0000 H   0  0  0  0  0  0  0  0  0  0  0  0
   -3.9005    4.1805    0.0000 H   0  0  0  0  0  0  0  0  0  0  0  0
   -0.4758    2.9491    0.0000 H   0  0  0  0  0  0  0  0  0  0  0  0
   -4.1734    0.6114    0.0000 H   0  0  0  0  0  0  0  0  0  0  0  0
   -4.1734    2.9095    0.0000 H   0  0  0  0  0  0  0  0  0  0  0  0
   -2.3570    0.1336    0.0000 H   0  0  0  0  0  0  0  0  0  0  0  0
    0.2480    2.0865    0.0000 H   0  0  0  0  0  0  0  0  0  0  0  0
    1.8302    1.1491    0.0000 H   0  0  0  0  0  0  0  0  0  0  0  0
    1.8302   -1.1491    0.0000 H   0  0  0  0  0  0  0  0  0  0  0  0
    1.0442   -2.5105    0.0000 H   0  0  0  0  0  0  0  0  0  0  0  0
   -0.9460   -3.6595    0.0000 H   0  0  0  0  0  0  0  0  0  0  0  0
   -2.6962   -2.6491    0.0000 H   0  0  0  0  0  0  0  0  0  0  0  0
   -2.4518   -0.8288    0.0000 H   0  0  0  0  0  0  0  0  0  0  0  0
  1  2  1  0
  2  3  1  0
  3  4  1  0
  4  5  1  0
  5  6  1  0
  6  7  1  0
  7  8  1  0
  8  9  1  0
  9 10  1  0
  5  3  1  0
  8  6  1  0
 10  8  1  0
  1 11  1  0
  2 12  1  0
  3 13  1  6
  4 14  1  0
  4 15  1  0
  5 16  1  6
  6 17  1  6
  7 18  1  0
  7 19  1  0
  9 20  1  0
  9 21  1  0
 10 22  1  0
 10 23  1  0
M  END
$$$$
