
     RDKit          2D

102115  0  0  0  0  0  0  0  0999 V2000
   -4.6565   -5.0182    0.0000 C   0  0  0  0  0  0  0  0  0  0  0  0
   -3.3791   -4.2318    0.0000 C   0  0  0  0  0  0  0  0  0  0  0  0
   -2.1018   -3.4454    0.0000 N   0  0  0  0  0  0  0  0  0  0  0  0
   -2.8744   -2.1595    0.0000 C   0  0  0  0  0  0  0  0  0  0  0  0
   -4.1655   -2.9544    0.0000 C   0  0  0  0  0  0  0  0  0  0  0  0
   -4.3579   -2.1538    0.0000 C   0  0  0  0  0  0  0  0  0  0  0  0
   -4.5935   -0.8181    0.0000 C   0  0  0  0  0  0  0  0  0  0  0  0
   -4.6865    0.0000    0.0000 C   0  0  0  0  0  0  0  0  0  0  0  0
   -4.1734    1.4095    0.0000 C   0  0  0  0  0  0  0  0  0  0  0  0
   -2.8744    2.1595    0.0000 C   0  0  0  0  0  0  0  0  0  0  0  0
   -1.9102    3.3086    0.0000 C   0  0  0  0  0  0  0  0  0  0  0  0
   -0.6112    4.0586    0.0000 C   0  0  0  0  0  0  0  0  0  0  0  0
    0.6879    4.8086    0.0000 C   0  0  0  0  0  0  0  0  0  0  0  0
    1.9869    5.5586    0.0000 C   0  0  0  0  0  0  0  0  0  0  0  0
    3.2859    6.3086    0.0000 C   0  0  0  0  0  0  0  0  0  0  0  0
    4.4839    7.2114    0.0000 Cl  0  0  0  0  0  0  0  0  0  0  0  0
    2.7369    4.2596    0.0000 C   0  0  0  0  0  0  0  0  0  0  0  0
    1.5878    3.2954    0.0000 C   0  0  0  0  0  0  0  0  0  0  0  0
    4.1464    4.7726    0.0000 C   0  0  0  0  0  0  0  0  0  0  0  0
    5.6236    4.5121    0.0000 C   0  0  0  0  0  0  0  0  0  0  0  0
    6.2576    5.8716    0.0000 C   0  0  0  0  0  0  0  0  0  0  0  0
    6.7727    3.5479    0.0000 C   0  0  0  0  0  0  0  0  0  0  0  0
    7.2857    2.1384    0.0000 C   0  0  0  0  0  0  0  0  0  0  0  0
    8.7629    1.8779    0.0000 C   0  0  0  0  0  0  0  0  0  0  0  0
    9.7271    3.0270    0.0000 C   0  0  0  0  0  0  0  0  0  0  0  0
    9.2141    4.4365    0.0000 C   0  0  0  0  0  0  0  0  0  0  0  0
    7.7369    4.6970    0.0000 C   0  0  0  0  0  0  0  0  0  0  0  0
    5.3632    3.0349    0.0000 C   0  0  0  0  0  0  0  0  0  0  0  0
    4.3990    1.8858    0.0000 C   0  0  0  0  0  0  0  0  0  0  0  0
    5.3632    0.7368    0.0000 C   0  0  0  0  0  0  0  0  0  0  0  0
    5.8762   -0.6728    0.0000 C   0  0  0  0  0  0  0  0  0  0  0  0
    4.3990   -0.4123    0.0000 C   0  0  0  0  0  0  0  0  0  0  0  0
    3.8860    3.2954    0.0000 C   0  0  0  0  0  0  0  0  0  0  0  0
   -1.3972    1.8991    0.0000 C   0  0  0  0  0  0  0  0  0  0  0  0
   -0.0982    2.6491    0.0000 C   0  0  0  0  0  0  0  0  0  0  0  0
   -0.4330    0.7500    0.0000 C   0  0  0  0  0  0  0  0  0  0  0  0
    0.8660    0.0000    0.0000 C   0  0  0  0  0  0  0  0  0  0  0  0
   -0.4330   -0.7500    0.0000 C   0  0  0  0  0  0  0  0  0  0  0  0
   -1.3972   -1.8991    0.0000 C   0  0  0  0  0  0  0  0  0  0  0  0
   -3.1029   -2.2947    0.0000 C   0  0  0  0  0  0  0  0  0  0  0  0
   -5.5830   -1.9226    0.0000 C   0  0  0  0  0  0  0  0  0  0  0  0
   -7.0602   -1.6621    0.0000 C   0  0  0  0  0  0  0  0  0  0  0  0
   -6.0960   -0.5130    0.0000 C   0  0  0  0  0  0  0  0  0  0  0  0
   -4.1734   -1.4095    0.0000 C   0  0  0  0  0  0  0  0  0  0  0  0
   -5.9338   -5.8045    0.0000 H   0  0  0  0  0  0  0  0  0  0  0  0
   -3.8701   -6.2955    0.0000 H   0  0  0  0  0  0  0  0  0  0  0  0
   -5.7286   -3.9691    0.0000 H   0  0  0  0  0  0  0  0  0  0  0  0
   -2.5927   -5.5091    0.0000 H   0  0  0  0  0  0  0  0  0  0  0  0
   -0.6957   -3.9678    0.0000 H   0  0  0  0  0  0  0  0  0  0  0  0
   -5.0259   -4.1832    0.0000 H   0  0  0  0  0  0  0  0  0  0  0  0
   -6.9754   -2.9791    0.0000 H   0  0  0  0  0  0  0  0  0  0  0  0
   -6.1852   -3.8117    0.0000 H   0  0  0  0  0  0  0  0  0  0  0  0
   -6.7383    0.2337    0.0000 H   0  0  0  0  0  0  0  0  0  0  0  0
   -7.0791   -1.8030    0.0000 H   0  0  0  0  0  0  0  0  0  0  0  0
   -5.6709    1.4968    0.0000 H   0  0  0  0  0  0  0  0  0  0  0  0
   -4.6947    2.8161    0.0000 H   0  0  0  0  0  0  0  0  0  0  0  0
   -3.6913    3.4176    0.0000 H   0  0  0  0  0  0  0  0  0  0  0  0
   -2.8744    4.4577    0.0000 H   0  0  0  0  0  0  0  0  0  0  0  0
   -1.3612    5.3576    0.0000 H   0  0  0  0  0  0  0  0  0  0  0  0
    0.2916    2.8607    0.0000 H   0  0  0  0  0  0  0  0  0  0  0  0
   -0.0621    6.1076    0.0000 H   0  0  0  0  0  0  0  0  0  0  0  0
    1.2739    3.4278    0.0000 H   0  0  0  0  0  0  0  0  0  0  0  0
    1.2369    6.8576    0.0000 H   0  0  0  0  0  0  0  0  0  0  0  0
    2.5359    7.6076    0.0000 H   0  0  0  0  0  0  0  0  0  0  0  0
    4.3280    5.2297    0.0000 H   0  0  0  0  0  0  0  0  0  0  0  0
    1.0261    1.9045    0.0000 H   0  0  0  0  0  0  0  0  0  0  0  0
    2.5520    2.1463    0.0000 H   0  0  0  0  0  0  0  0  0  0  0  0
    0.3743    4.1770    0.0000 H   0  0  0  0  0  0  0  0  0  0  0  0
    4.3812    6.2541    0.0000 H   0  0  0  0  0  0  0  0  0  0  0  0
    6.8915    7.2310    0.0000 H   0  0  0  0  0  0  0  0  0  0  0  0
    7.7300    5.5855    0.0000 H   0  0  0  0  0  0  0  0  0  0  0  0
    4.9855    6.6665    0.0000 H   0  0  0  0  0  0  0  0  0  0  0  0
    7.2857    0.6384    0.0000 H   0  0  0  0  0  0  0  0  0  0  0  0
    5.8085    1.8779    0.0000 H   0  0  0  0  0  0  0  0  0  0  0  0
   10.0620    1.1279    0.0000 H   0  0  0  0  0  0  0  0  0  0  0  0
    8.2499    0.4684    0.0000 H   0  0  0  0  0  0  0  0  0  0  0  0
   11.0262    3.7770    0.0000 H   0  0  0  0  0  0  0  0  0  0  0  0
   10.6913    1.8779    0.0000 H   0  0  0  0  0  0  0  0  0  0  0  0
    9.2141    5.9365    0.0000 H   0  0  0  0  0  0  0  0  0  0  0  0
   10.6913    4.6970    0.0000 H   0  0  0  0  0  0  0  0  0  0  0  0
    6.6579    5.7391    0.0000 H   0  0  0  0  0  0  0  0  0  0  0  0
    8.2499    6.1065    0.0000 H   0  0  0  0  0  0  0  0  0  0  0  0
    3.0182    1.2998    0.0000 H   0  0  0  0  0  0  0  0  0  0  0  0
    6.6622    1.4868    0.0000 H   0  0  0  0  0  0  0  0  0  0  0  0
    7.3534   -0.4123    0.0000 H   0  0  0  0  0  0  0  0  0  0  0  0
    5.8762   -2.1728    0.0000 H   0  0  0  0  0  0  0  0  0  0  0  0
    3.8860   -1.8218    0.0000 H   0  0  0  0  0  0  0  0  0  0  0  0
    3.0182    0.1738    0.0000 H   0  0  0  0  0  0  0  0  0  0  0  0
    1.0998    3.5518    0.0000 H   0  0  0  0  0  0  0  0  0  0  0  0
    0.8046    1.4511    0.0000 H   0  0  0  0  0  0  0  0  0  0  0  0
   -0.5115    4.0910    0.0000 H   0  0  0  0  0  0  0  0  0  0  0  0
    0.7806    1.6316    0.0000 H   0  0  0  0  0  0  0  0  0  0  0  0
    1.8302    1.1491    0.0000 H   0  0  0  0  0  0  0  0  0  0  0  0
    1.8302   -1.1491    0.0000 H   0  0  0  0  0  0  0  0  0  0  0  0
    0.5312   -1.8991    0.0000 H   0  0  0  0  0  0  0  0  0  0  0  0
   -0.4944   -3.0970    0.0000 H   0  0  0  0  0  0  0  0  0  0  0  0
   -1.8942   -4.1080    0.0000 H   0  0  0  0  0  0  0  0  0  0  0  0
   -3.8446   -3.6332    0.0000 H   0  0  0  0  0  0  0  0  0  0  0  0
   -7.7412   -2.9986    0.0000 H   0  0  0  0  0  0  0  0  0  0  0  0
   -8.3592   -0.9121    0.0000 H   0  0  0  0  0  0  0  0  0  0  0  0
   -6.8002    0.8114    0.0000 H   0  0  0  0  0  0  0  0  0  0  0  0
   -2.9447   -0.5492    0.0000 H   0  0  0  0  0  0  0  0  0  0  0  0
  1  2  1  0
  2  3  1  0
  3  4  1  0
  4  5  1  0
  5  6  1  0
  6  7  1  0
  7  8  1  0
  8  9  1  0
  9 10  1  0
 10 11  1  0
 11 12  1  0
 12 13  1  0
 13 14  1  0
 14 15  1  0
 15 16  1  0
 14 17  1  0
 17 18  1  0
 17 19  1  0
 19 20  1  0
 20 21  1  0
 20 22  1  0
 22 23  1  0
 23 24  1  0
 24 25  1  0
 25 26  1  0
 26 27  1  0
 22 28  1  0
 28 29  1  0
 29 30  1  0
 30 31  1  0
 31 32  1  0
 29 33  1  0
 11 34  1  0
 34 35  1  0
 34 36  1  0
 36 37  1  0
 37 38  1  0
 38 39  1  0
 39 40  1  0
 40 41  1  0
 41 42  1  0
 42 43  1  0
 41 44  1  0
  5  2  1  0
 43  8  1  0
 39  4  1  0
 43 41  1  0
 44  4  1  0
 44  8  1  0
 34 10  1  0
 38 36  1  0
 33 17  1  0
 33 19  1  0
 28 20  1  0
 32 30  1  0
 27 22  1  0
 33 28  1  0
  1 45  1  0
  1 46  1  0
  1 47  1  0
  2 48  1  0
  3 49  1  0
  5 50  1  0
  6 51  1  0
  6 52  1  0
  7 53  1  0
  7 54  1  0
  9 55  1  0
  9 56  1  0
 10 57  1  0
 11 58  1  0
 12 59  1  0
 12 60  1  0
 13 61  1  0
 13 62  1  0
 14 63  1  0
 15 64  1  0
 15 65  1  0
 18 66  1  0
 18 67  1  0
 18 68  1  0
 19 69  1  0
 21 70  1  0
 21 71  1  0
 21 72  1  0
 23 73  1  0
 23 74  1  0
 24 75  1  0
 24 76  1  0
 25 77  1  0
 25 78  1  0
 26 79  1  0
 26 80  1  0
 27 81  1  0
 27 82  1  0
 29 83  1  0
 30 84  1  0
 31 85  1  0
 31 86  1  0
 32 87  1  0
 32 88  1  0
 35 89  1  0
 35 90  1  0
 35 91  1  0
 36 92  1  0
 37 93  1  0
 37 94  1  0
 38 95  1  0
 39 96  1  0
 40 97  1  0
 40 98  1  0
 42 99  1  0
 42100  1  0
 43101  1  0
 44102  1  0
M  END
$$$$
