
     RDKit          2D

 36 41  0  0  0  0  0  0  0  0999 V2000
   -6.3417   -3.8862    0.0000 O   0  0  0  0  0  0  0  0  0  0  0  0
   -4.8417   -3.8862    0.0000 C   0  0  0  0  0  0  0  0  0  0  0  0
   -3.5427   -4.6362    0.0000 C   0  0  0  0  0  0  0  0  0  0  0  0
   -2.0938   -4.2479    0.0000 C   0  0  0  0  0  0  0  0  0  0  0  0
   -1.3438   -2.9489    0.0000 C   0  0  0  0  0  0  0  0  0  0  0  0
   -1.7321   -1.5000    0.0000 C   0  0  0  0  0  0  0  0  0  0  0  0
   -3.0311   -0.7500    0.0000 C   0  0  0  0  0  0  0  0  0  0  0  0
   -3.0311    0.7500    0.0000 C   0  0  0  0  0  0  0  0  0  0  0  0
   -1.7321    1.5000    0.0000 C   0  0  0  0  0  0  0  0  0  0  0  0
   -2.4821    2.7990    0.0000 C   0  0  0  0  0  0  0  0  0  0  0  0
   -3.7811    2.0490    0.0000 C   0  0  0  0  0  0  0  0  0  0  0  0
   -4.4800   -1.1382    0.0000 C   0  0  0  0  0  0  0  0  0  0  0  0
   -5.2300   -2.4373    0.0000 C   0  0  0  0  0  0  0  0  0  0  0  0
    0.8660    0.0000    0.0000 C   0  0  0  0  0  0  0  0  0  0  0  0
   -0.4330    0.7500    0.0000 C   0  0  0  0  0  0  0  0  0  0  0  0
   -0.4330   -0.7500    0.0000 C   0  0  0  0  0  0  0  0  0  0  0  0
   -7.0917   -5.1852    0.0000 H   0  0  0  0  0  0  0  0  0  0  0  0
   -5.4037   -5.2769    0.0000 H   0  0  0  0  0  0  0  0  0  0  0  0
   -4.4662   -5.8182    0.0000 H   0  0  0  0  0  0  0  0  0  0  0  0
   -2.9567   -6.0169    0.0000 H   0  0  0  0  0  0  0  0  0  0  0  0
   -1.9110   -5.7367    0.0000 H   0  0  0  0  0  0  0  0  0  0  0  0
   -0.7031   -4.8099    0.0000 H   0  0  0  0  0  0  0  0  0  0  0  0
   -0.1618   -3.8723    0.0000 H   0  0  0  0  0  0  0  0  0  0  0  0
   -0.0448   -2.1989    0.0000 H   0  0  0  0  0  0  0  0  0  0  0  0
   -1.7243   -0.6143    0.0000 H   0  0  0  0  0  0  0  0  0  0  0  0
   -3.7943   -0.3005    0.0000 H   0  0  0  0  0  0  0  0  0  0  0  0
   -3.9082    0.6268    0.0000 H   0  0  0  0  0  0  0  0  0  0  0  0
   -0.6714    2.5607    0.0000 H   0  0  0  0  0  0  0  0  0  0  0  0
   -3.2321    4.0981    0.0000 H   0  0  0  0  0  0  0  0  0  0  0  0
   -1.1830    3.5490    0.0000 H   0  0  0  0  0  0  0  0  0  0  0  0
   -5.2300    2.4373    0.0000 H   0  0  0  0  0  0  0  0  0  0  0  0
   -5.3931    0.0518    0.0000 H   0  0  0  0  0  0  0  0  0  0  0  0
   -6.7171   -2.2415    0.0000 H   0  0  0  0  0  0  0  0  0  0  0  0
    2.3660    0.0000    0.0000 H   0  0  0  0  0  0  0  0  0  0  0  0
    0.3170    2.0490    0.0000 H   0  0  0  0  0  0  0  0  0  0  0  0
   -0.9661   -0.0426    0.0000 H   0  0  0  0  0  0  0  0  0  0  0  0
  1  2  1  0
  2  3  1  0
  3  4  1  0
  4  5  1  0
  5  6  1  0
  6  7  1  0
  7  8  1  0
  8  9  1  0
  9 10  1  0
 10 11  1  0
 11 12  1  0
 12 13  1  0
 13 14  1  0
 14 15  1  0
 15 16  1  0
 13  2  1  0
 16 14  1  0
 16  6  1  0
 12  7  1  0
 11  8  1  0
 15  9  1  0
  1 17  1  0
  2 18  1  1
  3 19  1  0
  3 20  1  0
  4 21  1  0
  4 22  1  0
  5 23  1  0
  5 24  1  0
  6 25  1  1
  7 26  1  1
  8 27  1  1
  9 28  1  1
 10 29  1  0
 10 30  1  0
 11 31  1  1
 12 32  1  1
 13 33  1  6
 14 34  1  6
 15 35  1  1
 16 36  1  1
M  END
$$$$
