
     RDKit          2D

 41 42  0  0  0  0  0  0  0  0999 V2000
    4.1067   -1.0805    0.0000 C   0  0  0  0  0  0  0  0  0  0  0  0
    2.9577   -0.1163    0.0000 C   0  0  0  0  0  0  0  0  0  0  0  0
    1.8086    0.8479    0.0000 C   0  0  0  0  0  0  0  0  0  0  0  0
    2.0691    2.3251    0.0000 C   0  0  0  0  0  0  0  0  0  0  0  0
    0.9200    3.2893    0.0000 C   0  0  0  0  0  0  0  0  0  0  0  0
   -0.4895    2.7762    0.0000 C   0  0  0  0  0  0  0  0  0  0  0  0
   -0.7500    1.2990    0.0000 C   0  0  0  0  0  0  0  0  0  0  0  0
   -2.1595    1.8121    0.0000 C   0  0  0  0  0  0  0  0  0  0  0  0
   -1.4095    3.1111    0.0000 C   0  0  0  0  0  0  0  0  0  0  0  0
   -2.1595    4.4101    0.0000 C   0  0  0  0  0  0  0  0  0  0  0  0
   -3.6595    4.4101    0.0000 C   0  0  0  0  0  0  0  0  0  0  0  0
   -3.3991    5.8874    0.0000 Br  0  0  0  0  0  0  0  0  0  0  0  0
   -5.0691    4.9232    0.0000 C   0  0  0  0  0  0  0  0  0  0  0  0
   -6.4786    5.4362    0.0000 C   0  0  0  0  0  0  0  0  0  0  0  0
   -4.4095    3.1111    0.0000 N   0  0  0  0  0  0  0  0  0  0  0  0
   -3.6595    1.8121    0.0000 C   0  0  0  0  0  0  0  0  0  0  0  0
    0.3991    0.3349    0.0000 C   0  0  0  0  0  0  0  0  0  0  0  0
    5.2558   -2.0447    0.0000 H   0  0  0  0  0  0  0  0  0  0  0  0
    5.0709    0.0686    0.0000 H   0  0  0  0  0  0  0  0  0  0  0  0
    3.1426   -2.2295    0.0000 H   0  0  0  0  0  0  0  0  0  0  0  0
    3.9219    1.0328    0.0000 H   0  0  0  0  0  0  0  0  0  0  0  0
    2.1407   -1.3743    0.0000 H   0  0  0  0  0  0  0  0  0  0  0  0
    3.4786    2.8381    0.0000 H   0  0  0  0  0  0  0  0  0  0  0  0
    1.1805    4.7665    0.0000 H   0  0  0  0  0  0  0  0  0  0  0  0
   -1.3711    3.9898    0.0000 H   0  0  0  0  0  0  0  0  0  0  0  0
   -1.5000   -0.0000    0.0000 H   0  0  0  0  0  0  0  0  0  0  0  0
   -2.4200    0.3349    0.0000 H   0  0  0  0  0  0  0  0  0  0  0  0
   -0.2605    4.0753    0.0000 H   0  0  0  0  0  0  0  0  0  0  0  0
   -0.6930    2.7617    0.0000 H   0  0  0  0  0  0  0  0  0  0  0  0
   -2.4200    5.8874    0.0000 H   0  0  0  0  0  0  0  0  0  0  0  0
   -0.7500    4.9232    0.0000 H   0  0  0  0  0  0  0  0  0  0  0  0
   -4.5560    6.3327    0.0000 H   0  0  0  0  0  0  0  0  0  0  0  0
   -5.7501    3.5867    0.0000 H   0  0  0  0  0  0  0  0  0  0  0  0
   -7.8882    5.9492    0.0000 H   0  0  0  0  0  0  0  0  0  0  0  0
   -5.9656    6.8457    0.0000 H   0  0  0  0  0  0  0  0  0  0  0  0
   -6.9916    4.0267    0.0000 H   0  0  0  0  0  0  0  0  0  0  0  0
   -5.8984    2.9283    0.0000 H   0  0  0  0  0  0  0  0  0  0  0  0
   -3.3991    0.3349    0.0000 H   0  0  0  0  0  0  0  0  0  0  0  0
   -5.0691    1.2990    0.0000 H   0  0  0  0  0  0  0  0  0  0  0  0
   -0.7500   -0.6293    0.0000 H   0  0  0  0  0  0  0  0  0  0  0  0
    0.9851   -1.0459    0.0000 H   0  0  0  0  0  0  0  0  0  0  0  0
  1  2  1  0
  2  3  1  0
  3  4  2  0
  4  5  1  0
  5  6  2  0
  6  7  1  0
  7  8  1  0
  8  9  1  0
  9 10  1  0
 10 11  1  0
 11 12  1  0
 11 13  1  0
 13 14  1  0
 11 15  1  0
 15 16  1  0
  7 17  1  0
 17  3  1  0
 16  8  1  0
  1 18  1  0
  1 19  1  0
  1 20  1  0
  2 21  1  0
  2 22  1  0
  4 23  1  0
  5 24  1  0
  6 25  1  0
  7 26  1  0
  8 27  1  0
  9 28  1  0
  9 29  1  0
 10 30  1  0
 10 31  1  0
 13 32  1  0
 13 33  1  0
 14 34  1  0
 14 35  1  0
 14 36  1  0
 15 37  1  0
 16 38  1  0
 16 39  1  0
 17 40  1  0
 17 41  1  0
M  END
$$$$
