
     RDKit          2D

 69 76  0  0  0  0  0  0  0  0999 V2000
   -1.7321   -1.5000    0.0000 C   0  0  0  0  0  0  0  0  0  0  0  0
   -2.4821   -2.7990    0.0000 C   0  0  0  0  0  0  0  0  0  0  0  0
   -3.2321   -4.0981    0.0000 C   0  0  0  0  0  0  0  0  0  0  0  0
   -1.1830   -3.5490    0.0000 C   0  0  0  0  0  0  0  0  0  0  0  0
    0.1160   -4.2990    0.0000 C   0  0  0  0  0  0  0  0  0  0  0  0
    0.3247   -5.7844    0.0000 F   0  0  0  0  0  0  0  0  0  0  0  0
   -1.9330   -3.3481    0.0000 O   0  0  0  0  0  0  0  0  0  0  0  0
   -2.6830   -2.0490    0.0000 C   0  0  0  0  0  0  0  0  0  0  0  0
   -1.9330   -0.7500    0.0000 C   0  0  0  0  0  0  0  0  0  0  0  0
   -1.9330    0.7500    0.0000 C   0  0  0  0  0  0  0  0  0  0  0  0
   -1.9330    2.2500    0.0000 C   0  0  0  0  0  0  0  0  0  0  0  0
   -1.9330    3.7500    0.0000 C   0  0  0  0  0  0  0  0  0  0  0  0
   -1.9330    5.2500    0.0000 C   0  0  0  0  0  0  0  0  0  0  0  0
   -2.4460    6.6595    0.0000 C   0  0  0  0  0  0  0  0  0  0  0  0
   -3.4102    5.5105    0.0000 C   0  0  0  0  0  0  0  0  0  0  0  0
   -4.7093    6.2605    0.0000 C   0  0  0  0  0  0  0  0  0  0  0  0
   -0.4330    0.7500    0.0000 C   0  0  0  0  0  0  0  0  0  0  0  0
    0.8660    0.0000    0.0000 C   0  0  0  0  0  0  0  0  0  0  0  0
    2.1651   -0.7500    0.0000 C   0  0  0  0  0  0  0  0  0  0  0  0
    3.6423   -1.0105    0.0000 C   0  0  0  0  0  0  0  0  0  0  0  0
    2.1651   -2.2500    0.0000 N   0  0  0  0  0  0  0  0  0  0  0  0
    0.8660   -3.0000    0.0000 C   0  0  0  0  0  0  0  0  0  0  0  0
    1.9267   -4.0607    0.0000 O   0  0  0  0  0  0  0  0  0  0  0  0
    1.5385   -5.5095    0.0000 O   0  0  0  0  0  0  0  0  0  0  0  0
    2.5991   -6.5702    0.0000 C   0  0  0  0  0  0  0  0  0  0  0  0
    3.8571   -7.3872    0.0000 C   0  0  0  0  0  0  0  0  0  0  0  0
    3.4689   -8.8361    0.0000 C   0  0  0  0  0  0  0  0  0  0  0  0
    1.9710   -8.9146    0.0000 C   0  0  0  0  0  0  0  0  0  0  0  0
    1.4334   -7.5142    0.0000 C   0  0  0  0  0  0  0  0  0  0  0  0
   -0.4330   -2.2500    0.0000 C   0  0  0  0  0  0  0  0  0  0  0  0
   -0.4330   -0.7500    0.0000 C   0  0  0  0  0  0  0  0  0  0  0  0
   -1.3187   -0.0581    0.0000 H   0  0  0  0  0  0  0  0  0  0  0  0
   -2.9300   -0.5972    0.0000 H   0  0  0  0  0  0  0  0  0  0  0  0
   -0.2901   -1.9134    0.0000 H   0  0  0  0  0  0  0  0  0  0  0  0
   -3.7811   -2.0490    0.0000 H   0  0  0  0  0  0  0  0  0  0  0  0
   -3.9821   -5.3971    0.0000 H   0  0  0  0  0  0  0  0  0  0  0  0
   -4.6128   -3.5120    0.0000 H   0  0  0  0  0  0  0  0  0  0  0  0
   -2.0341   -5.0008    0.0000 H   0  0  0  0  0  0  0  0  0  0  0  0
   -1.7691   -4.9298    0.0000 H   0  0  0  0  0  0  0  0  0  0  0  0
   -3.9410   -1.2321    0.0000 H   0  0  0  0  0  0  0  0  0  0  0  0
   -3.9410   -2.8660    0.0000 H   0  0  0  0  0  0  0  0  0  0  0  0
   -3.4330    0.7500    0.0000 H   0  0  0  0  0  0  0  0  0  0  0  0
   -3.4330    2.2500    0.0000 H   0  0  0  0  0  0  0  0  0  0  0  0
   -0.4442    2.4328    0.0000 H   0  0  0  0  0  0  0  0  0  0  0  0
   -0.4330    3.7500    0.0000 H   0  0  0  0  0  0  0  0  0  0  0  0
   -3.4218    3.5672    0.0000 H   0  0  0  0  0  0  0  0  0  0  0  0
   -0.4558    5.5105    0.0000 H   0  0  0  0  0  0  0  0  0  0  0  0
   -1.1470    7.4095    0.0000 H   0  0  0  0  0  0  0  0  0  0  0  0
   -3.2630    7.9176    0.0000 H   0  0  0  0  0  0  0  0  0  0  0  0
   -4.0912    4.1740    0.0000 H   0  0  0  0  0  0  0  0  0  0  0  0
   -6.0083    7.0105    0.0000 H   0  0  0  0  0  0  0  0  0  0  0  0
   -5.4593    4.9614    0.0000 H   0  0  0  0  0  0  0  0  0  0  0  0
   -4.1232    7.6412    0.0000 H   0  0  0  0  0  0  0  0  0  0  0  0
    0.1289    2.1408    0.0000 H   0  0  0  0  0  0  0  0  0  0  0  0
    0.4526   -1.4419    0.0000 H   0  0  0  0  0  0  0  0  0  0  0  0
    2.6781    0.6595    0.0000 H   0  0  0  0  0  0  0  0  0  0  0  0
    5.1195   -1.2709    0.0000 H   0  0  0  0  0  0  0  0  0  0  0  0
    3.9027    0.4667    0.0000 H   0  0  0  0  0  0  0  0  0  0  0  0
    3.5638   -2.5084    0.0000 H   0  0  0  0  0  0  0  0  0  0  0  0
    3.3630   -3.1528    0.0000 H   0  0  0  0  0  0  0  0  0  0  0  0
    3.5431   -5.4045    0.0000 H   0  0  0  0  0  0  0  0  0  0  0  0
    4.5381   -6.0507    0.0000 H   0  0  0  0  0  0  0  0  0  0  0  0
    5.2575   -7.9247    0.0000 H   0  0  0  0  0  0  0  0  0  0  0  0
    4.9504   -9.0707    0.0000 H   0  0  0  0  0  0  0  0  0  0  0  0
    3.3904  -10.3340    0.0000 H   0  0  0  0  0  0  0  0  0  0  0  0
    2.2056  -10.3961    0.0000 H   0  0  0  0  0  0  0  0  0  0  0  0
    0.5221   -9.3028    0.0000 H   0  0  0  0  0  0  0  0  0  0  0  0
    0.0969   -8.1952    0.0000 H   0  0  0  0  0  0  0  0  0  0  0  0
    0.4692   -6.3651    0.0000 H   0  0  0  0  0  0  0  0  0  0  0  0
  1  2  1  0
  2  3  1  0
  2  4  1  0
  4  5  1  0
  5  6  1  0
  5  7  1  0
  7  8  1  0
  8  9  1  0
  9 10  1  0
 10 11  1  0
 11 12  1  0
 12 13  1  0
 13 14  1  0
 14 15  1  0
 15 16  1  0
 10 17  1  0
 17 18  1  0
 18 19  1  0
 19 20  1  0
 19 21  1  0
 21 22  1  0
 22 23  1  0
 23 24  1  0
 24 25  1  0
 25 26  1  0
 26 27  1  0
 27 28  1  0
 28 29  1  0
 22 30  1  0
 30 31  1  0
 30  4  1  0
 22  5  1  0
 29 25  1  0
 30  9  1  0
 31  9  1  0
 15 13  1  0
 31 17  1  0
 31 18  1  0
  1 32  1  0
  1 33  1  0
  1 34  1  0
  2 35  1  0
  3 36  1  0
  3 37  1  0
  3 38  1  0
  4 39  1  0
  8 40  1  0
  8 41  1  0
 10 42  1  0
 11 43  1  0
 11 44  1  0
 12 45  1  0
 12 46  1  0
 13 47  1  0
 14 48  1  0
 14 49  1  0
 15 50  1  0
 16 51  1  0
 16 52  1  0
 16 53  1  0
 17 54  1  0
 18 55  1  0
 19 56  1  0
 20 57  1  0
 20 58  1  0
 20 59  1  0
 21 60  1  0
 25 61  1  0
 26 62  1  0
 26 63  1  0
 27 64  1  0
 27 65  1  0
 28 66  1  0
 28 67  1  0
 29 68  1  0
 29 69  1  0
M  END
$$$$
