
     RDKit          2D

 38 40  0  0  0  0  0  0  0  0999 V2000
    2.1213    1.0607    0.0000 C   0  0  0  0  0  0  0  0  0  0  0  0
    1.0607    0.0000    0.0000 C   0  0  0  0  0  0  0  0  0  0  0  0
   -0.0000   -1.0607    0.0000 O   0  0  0  0  0  0  0  0  0  0  0  0
   -1.0607    0.0000    0.0000 C   0  0  0  0  0  0  0  0  0  0  0  0
   -2.1213   -1.0607    0.0000 O   0  0  0  0  0  0  0  0  0  0  0  0
    0.0000    1.0607    0.0000 C   0  0  0  0  0  0  0  0  0  0  0  0
   -1.0607    2.1213    0.0000 C   0  0  0  0  0  0  0  0  0  0  0  0
   -2.1213    3.1820    0.0000 C   0  0  0  0  0  0  0  0  0  0  0  0
   -3.1820    4.2426    0.0000 O   0  0  0  0  0  0  0  0  0  0  0  0
   -0.0000    3.1820    0.0000 C   0  0  0  0  0  0  0  0  0  0  0  0
    1.0607    4.2426    0.0000 C   0  0  0  0  0  0  0  0  0  0  0  0
    0.2003    5.4714    0.0000 C   0  0  0  0  0  0  0  0  0  0  0  0
    0.8342    6.8308    0.0000 C   0  0  0  0  0  0  0  0  0  0  0  0
   -0.3945    7.6912    0.0000 C   0  0  0  0  0  0  0  0  0  0  0  0
    1.6946    5.6021    0.0000 C   0  0  0  0  0  0  0  0  0  0  0  0
    3.1889    5.7328    0.0000 C   0  0  0  0  0  0  0  0  0  0  0  0
    3.1820    2.1213    0.0000 H   0  0  0  0  0  0  0  0  0  0  0  0
    3.1820    0.0000    0.0000 H   0  0  0  0  0  0  0  0  0  0  0  0
    1.5760    1.7586    0.0000 H   0  0  0  0  0  0  0  0  0  0  0  0
    2.1213   -1.0607    0.0000 H   0  0  0  0  0  0  0  0  0  0  0  0
   -1.7586    0.5453    0.0000 H   0  0  0  0  0  0  0  0  0  0  0  0
   -3.5702   -0.6724    0.0000 H   0  0  0  0  0  0  0  0  0  0  0  0
    0.5453    1.7586    0.0000 H   0  0  0  0  0  0  0  0  0  0  0  0
   -1.7586    1.5760    0.0000 H   0  0  0  0  0  0  0  0  0  0  0  0
   -1.6652    3.9412    0.0000 H   0  0  0  0  0  0  0  0  0  0  0  0
   -3.1820    2.1213    0.0000 H   0  0  0  0  0  0  0  0  0  0  0  0
   -4.6309    3.8544    0.0000 H   0  0  0  0  0  0  0  0  0  0  0  0
   -0.5631    4.1193    0.0000 H   0  0  0  0  0  0  0  0  0  0  0  0
   -0.8591    4.0411    0.0000 H   0  0  0  0  0  0  0  0  0  0  0  0
    2.2894    3.3823    0.0000 H   0  0  0  0  0  0  0  0  0  0  0  0
   -1.2940    5.3406    0.0000 H   0  0  0  0  0  0  0  0  0  0  0  0
    1.8949    7.8915    0.0000 H   0  0  0  0  0  0  0  0  0  0  0  0
   -1.6232    8.5516    0.0000 H   0  0  0  0  0  0  0  0  0  0  0  0
    0.4659    8.9199    0.0000 H   0  0  0  0  0  0  0  0  0  0  0  0
   -1.2549    6.4625    0.0000 H   0  0  0  0  0  0  0  0  0  0  0  0
    4.6832    5.8636    0.0000 H   0  0  0  0  0  0  0  0  0  0  0  0
    3.0581    7.2271    0.0000 H   0  0  0  0  0  0  0  0  0  0  0  0
    3.3196    4.2385    0.0000 H   0  0  0  0  0  0  0  0  0  0  0  0
  1  2  1  0
  2  3  1  0
  3  4  1  0
  4  5  1  0
  4  6  1  0
  6  7  1  0
  7  8  1  0
  8  9  1  0
  7 10  1  0
 10 11  1  0
 11 12  1  0
 12 13  1  0
 13 14  1  0
 13 15  1  0
 15 16  1  0
  6  2  1  0
 15 11  1  0
 15 12  1  0
  1 17  1  0
  1 18  1  0
  1 19  1  0
  2 20  1  0
  4 21  1  0
  5 22  1  0
  6 23  1  0
  7 24  1  0
  8 25  1  0
  8 26  1  0
  9 27  1  0
 10 28  1  0
 10 29  1  0
 11 30  1  0
 12 31  1  0
 13 32  1  0
 14 33  1  0
 14 34  1  0
 14 35  1  0
 16 36  1  0
 16 37  1  0
 16 38  1  0
M  END
$$$$
