
     RDKit          2D

 23 24  0  0  0  0  0  0  0  0999 V2000
   -1.3344    4.1069    0.0000 C   0  0  0  0  0  0  0  0  0  0  0  0
    0.1520    3.9056    0.0000 C   0  0  0  0  0  0  0  0  0  0  0  0
    0.9214    2.6179    0.0000 C   0  0  0  0  0  0  0  0  0  0  0  0
    0.3943    1.2135    0.0000 C   0  0  0  0  0  0  0  0  0  0  0  0
    1.2760    0.0000    0.0000 C   0  0  0  0  0  0  0  0  0  0  0  0
    0.3943   -1.2135    0.0000 As  0  0  0  0  0  3  0  0  0  0  0  0
   -1.0323   -0.7500    0.0000 O   0  0  0  0  0  0  0  0  0  0  0  0
   -1.0323    0.7500    0.0000 C   0  0  0  0  0  0  0  0  0  0  0  0
   -2.2841    1.5763    0.0000 O   0  0  0  0  0  0  0  0  0  0  0  0
   -2.4186    3.0703    0.0000 C   0  0  0  0  0  0  0  0  0  0  0  0
   -0.9825    5.5650    0.0000 H   0  0  0  0  0  0  0  0  0  0  0  0
   -2.4762    5.0797    0.0000 H   0  0  0  0  0  0  0  0  0  0  0  0
    1.5115    4.5395    0.0000 H   0  0  0  0  0  0  0  0  0  0  0  0
    0.2007    5.4048    0.0000 H   0  0  0  0  0  0  0  0  0  0  0  0
    2.2646    1.9503    0.0000 H   0  0  0  0  0  0  0  0  0  0  0  0
    2.1238    3.5146    0.0000 H   0  0  0  0  0  0  0  0  0  0  0  0
   -0.5926    2.3431    0.0000 H   0  0  0  0  0  0  0  0  0  0  0  0
    2.5047    0.8603    0.0000 H   0  0  0  0  0  0  0  0  0  0  0  0
    2.3907   -1.0037    0.0000 H   0  0  0  0  0  0  0  0  0  0  0  0
    0.8578   -2.6401    0.0000 H   0  0  0  0  0  0  0  0  0  0  0  0
   -2.3532    0.0392    0.0000 H   0  0  0  0  0  0  0  0  0  0  0  0
   -3.3392    4.2546    0.0000 H   0  0  0  0  0  0  0  0  0  0  0  0
   -3.8452    2.6068    0.0000 H   0  0  0  0  0  0  0  0  0  0  0  0
  1  2  1  0
  2  3  1  0
  3  4  1  0
  4  5  1  0
  5  6  1  0
  6  7  1  0
  7  8  1  0
  8  9  1  0
  9 10  1  0
 10  1  1  0
  8  4  1  0
  1 11  1  0
  1 12  1  0
  2 13  1  0
  2 14  1  0
  3 15  1  0
  3 16  1  0
  4 17  1  0
  5 18  1  0
  5 19  1  0
  6 20  1  0
  8 21  1  0
 10 22  1  0
 10 23  1  0
M  END
$$$$
