
     RDKit          2D

 46 48  0  0  0  0  0  0  0  0999 V2000
   -4.3840    2.7990    0.0000 C   0  0  0  0  0  0  0  0  0  0  0  0
   -5.6830    2.0490    0.0000 C   0  0  0  0  0  0  0  0  0  0  0  0
   -6.9821    1.2990    0.0000 C   0  0  0  0  0  0  0  0  0  0  0  0
   -8.2811    0.5490    0.0000 C   0  0  0  0  0  0  0  0  0  0  0  0
   -9.5801   -0.2010    0.0000 C   0  0  0  0  0  0  0  0  0  0  0  0
  -10.3301    1.0981    0.0000 C   0  0  0  0  0  0  0  0  0  0  0  0
  -11.6292    0.3481    0.0000 C   0  0  0  0  0  0  0  0  0  0  0  0
  -10.8792   -0.9510    0.0000 C   0  0  0  0  0  0  0  0  0  0  0  0
   -4.9330    0.7500    0.0000 O   0  0  0  0  0  0  0  0  0  0  0  0
   -3.4330    0.7500    0.0000 C   0  0  0  0  0  0  0  0  0  0  0  0
   -1.9330    0.7500    0.0000 C   0  0  0  0  0  0  0  0  0  0  0  0
   -1.9330   -0.7500    0.0000 N   0  0  0  0  0  0  0  0  0  0  0  0
   -0.4330   -0.7500    0.0000 C   0  0  0  0  0  0  0  0  0  0  0  0
   -0.4330    0.7500    0.0000 C   0  0  0  0  0  0  0  0  0  0  0  0
    0.8660   -0.0000    0.0000 S   0  0  0  0  0  4  0  0  0  0  0  0
    1.8302    1.1491    0.0000 C   0  0  0  0  0  0  0  0  0  0  0  0
    1.8302   -1.1491    0.0000 C   0  0  0  0  0  0  0  0  0  0  0  0
    2.7944   -2.2981    0.0000 O   0  0  0  0  0  0  0  0  0  0  0  0
    2.2814   -3.7077    0.0000 O   0  0  0  0  0  0  0  0  0  0  0  0
   -3.0849    3.5490    0.0000 H   0  0  0  0  0  0  0  0  0  0  0  0
   -5.1340    4.0981    0.0000 H   0  0  0  0  0  0  0  0  0  0  0  0
   -3.7644    2.2974    0.0000 H   0  0  0  0  0  0  0  0  0  0  0  0
   -6.4330    3.3481    0.0000 H   0  0  0  0  0  0  0  0  0  0  0  0
   -7.7321    2.5981    0.0000 H   0  0  0  0  0  0  0  0  0  0  0  0
   -6.2321    0.0000    0.0000 H   0  0  0  0  0  0  0  0  0  0  0  0
   -7.5311   -0.7500    0.0000 H   0  0  0  0  0  0  0  0  0  0  0  0
   -8.6272    1.3644    0.0000 H   0  0  0  0  0  0  0  0  0  0  0  0
   -8.8301   -1.5000    0.0000 H   0  0  0  0  0  0  0  0  0  0  0  0
  -11.0801    2.3971    0.0000 H   0  0  0  0  0  0  0  0  0  0  0  0
   -9.6228    1.6311    0.0000 H   0  0  0  0  0  0  0  0  0  0  0  0
  -12.9282   -0.4019    0.0000 H   0  0  0  0  0  0  0  0  0  0  0  0
  -12.3792    1.6471    0.0000 H   0  0  0  0  0  0  0  0  0  0  0  0
  -10.1292   -2.2500    0.0000 H   0  0  0  0  0  0  0  0  0  0  0  0
  -12.1782   -1.7010    0.0000 H   0  0  0  0  0  0  0  0  0  0  0  0
   -3.3358    1.5412    0.0000 H   0  0  0  0  0  0  0  0  0  0  0  0
   -3.4330   -0.7500    0.0000 H   0  0  0  0  0  0  0  0  0  0  0  0
   -1.9330    2.2500    0.0000 H   0  0  0  0  0  0  0  0  0  0  0  0
   -2.9937   -1.8107    0.0000 H   0  0  0  0  0  0  0  0  0  0  0  0
   -0.2243   -2.2354    0.0000 H   0  0  0  0  0  0  0  0  0  0  0  0
   -0.2243    2.2354    0.0000 H   0  0  0  0  0  0  0  0  0  0  0  0
    2.7944    2.2981    0.0000 H   0  0  0  0  0  0  0  0  0  0  0  0
    3.0882    0.3321    0.0000 H   0  0  0  0  0  0  0  0  0  0  0  0
    0.8072    2.2461    0.0000 H   0  0  0  0  0  0  0  0  0  0  0  0
    0.8072   -2.2461    0.0000 H   0  0  0  0  0  0  0  0  0  0  0  0
    3.0882   -0.3321    0.0000 H   0  0  0  0  0  0  0  0  0  0  0  0
    3.2455   -4.8567    0.0000 H   0  0  0  0  0  0  0  0  0  0  0  0
  1  2  1  0
  2  3  1  0
  3  4  1  0
  4  5  1  0
  5  6  1  0
  6  7  1  0
  7  8  1  0
  2  9  1  0
  9 10  1  0
 10 11  1  0
 11 12  1  0
 12 13  1  0
 13 14  1  0
 14 15  1  0
 15 16  1  6
 15 17  1  0
 17 18  1  0
 18 19  1  0
  8  5  1  0
 14 11  1  0
 15 13  1  0
  1 20  1  0
  1 21  1  0
  1 22  1  0
  2 23  1  6
  3 24  1  0
  3 25  1  0
  4 26  1  0
  4 27  1  0
  5 28  1  0
  6 29  1  0
  6 30  1  0
  7 31  1  0
  7 32  1  0
  8 33  1  0
  8 34  1  0
 10 35  1  0
 10 36  1  0
 11 37  1  6
 12 38  1  0
 13 39  1  6
 14 40  1  6
 16 41  1  0
 16 42  1  0
 16 43  1  0
 17 44  1  0
 17 45  1  0
 19 46  1  0
M  END
$$$$
