
     RDKit          2D

103111  0  0  0  0  0  0  0  0999 V2000
  -10.4178   -7.4190    0.0000 C   0  0  0  0  0  0  0  0  0  0  0  0
  -11.6247   -6.5283    0.0000 C   0  0  0  0  0  0  0  0  0  0  0  0
  -13.1080   -6.7519    0.0000 C   0  0  0  0  0  0  0  0  0  0  0  0
  -13.3315   -5.2686    0.0000 C   0  0  0  0  0  0  0  0  0  0  0  0
  -14.8221   -5.1007    0.0000 C   0  0  0  0  0  0  0  0  0  0  0  0
  -16.3127   -4.9327    0.0000 C   0  0  0  0  0  0  0  0  0  0  0  0
  -17.8033   -4.7648    0.0000 N   0  0  0  0  0  0  0  0  0  0  0  0
  -18.6940   -5.9717    0.0000 C   0  0  0  0  0  0  0  0  0  0  0  0
  -19.9438   -6.8011    0.0000 C   0  0  0  0  0  0  0  0  0  0  0  0
  -19.3439   -8.1760    0.0000 C   0  0  0  0  0  0  0  0  0  0  0  0
  -18.7441   -9.5508    0.0000 C   0  0  0  0  0  0  0  0  0  0  0  0
  -20.0372   -5.3041    0.0000 C   0  0  0  0  0  0  0  0  0  0  0  0
  -21.5278   -5.1361    0.0000 O   0  0  0  0  0  0  0  0  0  0  0  0
  -12.7835   -3.8723    0.0000 C   0  0  0  0  0  0  0  0  0  0  0  0
  -11.7910   -2.7476    0.0000 C   0  0  0  0  0  0  0  0  0  0  0  0
  -10.7985   -1.6230    0.0000 O   0  0  0  0  0  0  0  0  0  0  0  0
   -9.3282   -1.9202    0.0000 C   0  0  0  0  0  0  0  0  0  0  0  0
   -7.8580   -2.2174    0.0000 C   0  0  0  0  0  0  0  0  0  0  0  0
   -6.3877   -2.5146    0.0000 C   0  0  0  0  0  0  0  0  0  0  0  0
   -4.9174   -2.8118    0.0000 C   0  0  0  0  0  0  0  0  0  0  0  0
   -3.4472   -3.1091    0.0000 C   0  0  0  0  0  0  0  0  0  0  0  0
   -1.9769   -3.4063    0.0000 C   0  0  0  0  0  0  0  0  0  0  0  0
   -0.5067   -3.7035    0.0000 C   0  0  0  0  0  0  0  0  0  0  0  0
    0.9636   -4.0007    0.0000 C   0  0  0  0  0  0  0  0  0  0  0  0
    2.4338   -4.2979    0.0000 C   0  0  0  0  0  0  0  0  0  0  0  0
   -0.2094   -2.2332    0.0000 C   0  0  0  0  0  0  0  0  0  0  0  0
   -1.6058   -1.6852    0.0000 C   0  0  0  0  0  0  0  0  0  0  0  0
   -3.0682   -1.3515    0.0000 C   0  0  0  0  0  0  0  0  0  0  0  0
   -3.7190    0.0000    0.0000 C   0  0  0  0  0  0  0  0  0  0  0  0
   -4.8917   -0.9352    0.0000 C   0  0  0  0  0  0  0  0  0  0  0  0
   -4.1743   -2.2526    0.0000 As  0  0  0  0  0  3  0  0  0  0  0  0
   -4.9565   -3.5325    0.0000 C   0  0  0  0  0  0  0  0  0  0  0  0
   -6.4560   -3.4951    0.0000 C   0  0  0  0  0  0  0  0  0  0  0  0
   -6.7532   -4.9654    0.0000 C   0  0  0  0  0  0  0  0  0  0  0  0
   -7.0505   -6.4356    0.0000 C   0  0  0  0  0  0  0  0  0  0  0  0
   -7.3477   -7.9059    0.0000 C   0  0  0  0  0  0  0  0  0  0  0  0
   -7.6449   -9.3761    0.0000 N   0  0  0  0  0  0  0  0  0  0  0  0
   -5.6739   -2.2152    0.0000 C   0  0  0  0  0  0  0  0  0  0  0  0
   -3.0682    1.3515    0.0000 C   0  0  0  0  0  0  0  0  0  0  0  0
   -1.6058    1.6852    0.0000 C   0  0  0  0  0  0  0  0  0  0  0  0
   -0.4330    0.7500    0.0000 C   0  0  0  0  0  0  0  0  0  0  0  0
    0.8660    0.0000    0.0000 C   0  0  0  0  0  0  0  0  0  0  0  0
   -0.4330   -0.7500    0.0000 C   0  0  0  0  0  0  0  0  0  0  0  0
  -11.8483   -5.0451    0.0000 C   0  0  0  0  0  0  0  0  0  0  0  0
  -10.5858   -8.9096    0.0000 H   0  0  0  0  0  0  0  0  0  0  0  0
   -9.2290   -6.5043    0.0000 H   0  0  0  0  0  0  0  0  0  0  0  0
  -12.8844   -8.2351    0.0000 H   0  0  0  0  0  0  0  0  0  0  0  0
  -14.4084   -7.1143    0.0000 H   0  0  0  0  0  0  0  0  0  0  0  0
  -15.1357   -6.4138    0.0000 H   0  0  0  0  0  0  0  0  0  0  0  0
  -14.8371   -3.6008    0.0000 H   0  0  0  0  0  0  0  0  0  0  0  0
  -16.1447   -3.4422    0.0000 H   0  0  0  0  0  0  0  0  0  0  0  0
  -16.4806   -6.4233    0.0000 H   0  0  0  0  0  0  0  0  0  0  0  0
  -18.4031   -3.3899    0.0000 H   0  0  0  0  0  0  0  0  0  0  0  0
  -17.6512   -6.8291    0.0000 H   0  0  0  0  0  0  0  0  0  0  0  0
  -21.4019   -7.1531    0.0000 H   0  0  0  0  0  0  0  0  0  0  0  0
  -20.7188   -8.7758    0.0000 H   0  0  0  0  0  0  0  0  0  0  0  0
  -18.0500   -7.7910    0.0000 H   0  0  0  0  0  0  0  0  0  0  0  0
  -18.1443  -10.9257    0.0000 H   0  0  0  0  0  0  0  0  0  0  0  0
  -20.1189  -10.1507    0.0000 H   0  0  0  0  0  0  0  0  0  0  0  0
  -17.3693   -8.9510    0.0000 H   0  0  0  0  0  0  0  0  0  0  0  0
  -19.6130   -3.8653    0.0000 H   0  0  0  0  0  0  0  0  0  0  0  0
  -22.1276   -3.7613    0.0000 H   0  0  0  0  0  0  0  0  0  0  0  0
  -13.9586   -2.9400    0.0000 H   0  0  0  0  0  0  0  0  0  0  0  0
  -10.5537   -3.5957    0.0000 H   0  0  0  0  0  0  0  0  0  0  0  0
  -12.9157   -1.7551    0.0000 H   0  0  0  0  0  0  0  0  0  0  0  0
   -9.0310   -0.4499    0.0000 H   0  0  0  0  0  0  0  0  0  0  0  0
   -9.6254   -3.3904    0.0000 H   0  0  0  0  0  0  0  0  0  0  0  0
   -8.3322   -3.6405    0.0000 H   0  0  0  0  0  0  0  0  0  0  0  0
   -7.5607   -0.7472    0.0000 H   0  0  0  0  0  0  0  0  0  0  0  0
   -3.4830   -2.3127    0.0000 H   0  0  0  0  0  0  0  0  0  0  0  0
   -3.5630   -4.6046    0.0000 H   0  0  0  0  0  0  0  0  0  0  0  0
   -2.0443   -1.9078    0.0000 H   0  0  0  0  0  0  0  0  0  0  0  0
   -2.2741   -4.8765    0.0000 H   0  0  0  0  0  0  0  0  0  0  0  0
   -0.8039   -5.1738    0.0000 H   0  0  0  0  0  0  0  0  0  0  0  0
    0.6664   -5.4710    0.0000 H   0  0  0  0  0  0  0  0  0  0  0  0
    1.4378   -2.5777    0.0000 H   0  0  0  0  0  0  0  0  0  0  0  0
    3.9041   -4.5952    0.0000 H   0  0  0  0  0  0  0  0  0  0  0  0
    2.1366   -5.7682    0.0000 H   0  0  0  0  0  0  0  0  0  0  0  0
    2.7311   -2.8277    0.0000 H   0  0  0  0  0  0  0  0  0  0  0  0
    1.2835   -2.0876    0.0000 H   0  0  0  0  0  0  0  0  0  0  0  0
   -2.3816   -2.9690    0.0000 H   0  0  0  0  0  0  0  0  0  0  0  0
   -3.4311   -2.8069    0.0000 H   0  0  0  0  0  0  0  0  0  0  0  0
   -4.4063   -2.0292    0.0000 H   0  0  0  0  0  0  0  0  0  0  0  0
   -4.9970    0.7853    0.0000 H   0  0  0  0  0  0  0  0  0  0  0  0
   -6.0164    0.0573    0.0000 H   0  0  0  0  0  0  0  0  0  0  0  0
   -4.4050   -4.9275    0.0000 H   0  0  0  0  0  0  0  0  0  0  0  0
   -7.9560   -3.4840    0.0000 H   0  0  0  0  0  0  0  0  0  0  0  0
   -8.2235   -4.6681    0.0000 H   0  0  0  0  0  0  0  0  0  0  0  0
   -5.2830   -5.2626    0.0000 H   0  0  0  0  0  0  0  0  0  0  0  0
   -5.5802   -6.7328    0.0000 H   0  0  0  0  0  0  0  0  0  0  0  0
   -8.4735   -5.9614    0.0000 H   0  0  0  0  0  0  0  0  0  0  0  0
   -8.7708   -7.4317    0.0000 H   0  0  0  0  0  0  0  0  0  0  0  0
   -5.8774   -8.2031    0.0000 H   0  0  0  0  0  0  0  0  0  0  0  0
   -6.5202  -10.3687    0.0000 H   0  0  0  0  0  0  0  0  0  0  0  0
   -9.0668   -9.8539    0.0000 H   0  0  0  0  0  0  0  0  0  0  0  0
   -4.4790    1.8610    0.0000 H   0  0  0  0  0  0  0  0  0  0  0  0
   -3.2510    2.8403    0.0000 H   0  0  0  0  0  0  0  0  0  0  0  0
   -2.0870    3.1059    0.0000 H   0  0  0  0  0  0  0  0  0  0  0  0
   -0.4330    2.6205    0.0000 H   0  0  0  0  0  0  0  0  0  0  0  0
    0.4120    1.9894    0.0000 H   0  0  0  0  0  0  0  0  0  0  0  0
    1.8302    1.1491    0.0000 H   0  0  0  0  0  0  0  0  0  0  0  0
    1.8302   -1.1491    0.0000 H   0  0  0  0  0  0  0  0  0  0  0  0
  -10.4106   -4.6173    0.0000 H   0  0  0  0  0  0  0  0  0  0  0  0
  1  2  2  3
  2  3  1  0
  3  4  1  0
  4  5  1  1
  5  6  1  0
  6  7  1  0
  7  8  1  0
  8  9  1  0
  9 10  1  0
 10 11  1  0
  9 12  1  0
 12 13  1  0
  4 14  1  0
 14 15  1  0
 15 16  1  0
 16 17  1  0
 17 18  1  0
 18 19  1  0
 19 20  3  0
 20 21  1  0
 21 22  1  0
 22 23  1  0
 23 24  1  0
 24 25  1  0
 23 26  1  0
 26 27  1  0
 27 28  1  0
 28 29  1  0
 29 30  1  0
 30 31  1  0
 31 32  1  0
 32 33  1  0
 33 34  1  0
 34 35  1  0
 35 36  1  0
 36 37  1  0
 33 38  1  0
 29 39  1  0
 39 40  1  0
 40 41  1  0
 41 42  1  0
 43 42  1  1
 14 44  1  0
 44  2  1  0
 44  4  1  0
 12  8  1  0
 43 26  1  0
 43 27  1  0
 38 30  1  0
 43 41  1  0
 38 31  1  1
 38 32  1  0
  1 45  1  0
  1 46  1  0
  3 47  1  0
  3 48  1  0
  5 49  1  0
  5 50  1  0
  6 51  1  0
  6 52  1  0
  7 53  1  0
  8 54  1  1
  9 55  1  1
 10 56  1  0
 10 57  1  0
 11 58  1  0
 11 59  1  0
 11 60  1  0
 12 61  1  6
 13 62  1  0
 14 63  1  6
 15 64  1  0
 15 65  1  0
 17 66  1  0
 17 67  1  0
 18 68  1  0
 18 69  1  0
 21 70  1  0
 21 71  1  0
 22 72  1  0
 22 73  1  0
 23 74  1  6
 24 75  1  0
 24 76  1  0
 25 77  1  0
 25 78  1  0
 25 79  1  0
 26 80  1  1
 27 81  1  6
 28 82  1  0
 28 83  1  0
 29 84  1  6
 30 85  1  6
 32 86  1  6
 33 87  1  1
 34 88  1  0
 34 89  1  0
 35 90  1  0
 35 91  1  0
 36 92  1  0
 36 93  1  0
 37 94  1  0
 37 95  1  0
 39 96  1  0
 39 97  1  0
 40 98  1  0
 40 99  1  0
 41100  1  1
 42101  1  0
 42102  1  0
 44103  1  1
M  END
$$$$
