
     RDKit          2D

108110  0  0  0  0  0  0  0  0999 V2000
    6.0530   -2.7633    0.0000 C   0  0  0  0  0  0  0  0  0  0  0  0
    6.5165   -1.3368    0.0000 C   0  0  0  0  0  0  0  0  0  0  0  0
    5.5128   -0.2220    0.0000 C   0  0  0  0  0  0  0  0  0  0  0  0
    4.5091    0.8927    0.0000 C   0  0  0  0  0  0  0  0  0  0  0  0
    3.5054    2.0074    0.0000 C   0  0  0  0  0  0  0  0  0  0  0  0
    2.5017    3.1221    0.0000 C   0  0  0  0  0  0  0  0  0  0  0  0
    2.3907    1.0037    0.0000 C   0  0  0  0  0  0  0  0  0  0  0  0
    1.3870    2.1184    0.0000 N   0  0  0  0  0  0  0  0  0  0  0  0
    1.8505    3.5450    0.0000 O   0  0  0  0  0  0  0  0  0  0  0  0
    0.8468    4.6597    0.0000 C   0  0  0  0  0  0  0  0  0  0  0  0
    1.2760    0.0000    0.0000 C   0  0  0  0  0  0  0  0  0  0  0  0
    0.3943    1.2135    0.0000 N   0  0  0  0  0  2  0  0  0  0  0  0
   -1.0323    0.7500    0.0000 C   0  0  0  0  0  0  0  0  0  0  0  0
   -2.5241    0.5932    0.0000 C   0  0  0  0  0  0  0  0  0  0  0  0
   -2.6809    2.0850    0.0000 O   0  0  0  0  0  0  0  0  0  0  0  0
   -4.0159    0.4364    0.0000 C   0  0  0  0  0  0  0  0  0  0  0  0
   -5.5076    0.2796    0.0000 O   0  0  0  0  0  0  0  0  0  0  0  0
   -6.3893    1.4931    0.0000 C   0  0  0  0  0  0  0  0  0  0  0  0
   -1.0323   -0.7500    0.0000 N   0  0  0  0  0  2  0  0  0  0  0  0
    0.3943   -1.2135    0.0000 C   0  0  0  0  0  0  0  0  0  0  0  0
    1.5090   -2.2172    0.0000 C   0  0  0  0  0  0  0  0  0  0  0  0
    0.0824   -2.6807    0.0000 Sb  0  0  0  0  0  3  0  0  0  0  0  0
   -0.9213   -3.7955    0.0000 C   0  0  0  0  0  0  0  0  0  0  0  0
   -2.0360   -2.7918    0.0000 O   0  0  0  0  0  0  0  0  0  0  0  0
   -3.4626   -3.2553    0.0000 O   0  0  0  0  0  0  0  0  0  0  0  0
    0.1935   -4.7992    0.0000 N   0  0  0  0  0  0  0  0  0  0  0  0
   -0.1184   -6.2664    0.0000 C   0  0  0  0  0  0  0  0  0  0  0  0
   -0.4303   -7.7336    0.0000 C   0  0  0  0  0  0  0  0  0  0  0  0
   -0.7422   -9.2008    0.0000 C   0  0  0  0  0  0  0  0  0  0  0  0
   -1.0540  -10.6680    0.0000 C   0  0  0  0  0  0  0  0  0  0  0  0
    1.6200   -4.3356    0.0000 N   0  0  0  0  0  0  0  0  0  0  0  0
    2.7348   -5.3393    0.0000 C   0  0  0  0  0  0  0  0  0  0  0  0
    3.8495   -6.3430    0.0000 C   0  0  0  0  0  0  0  0  0  0  0  0
    4.9642   -7.3467    0.0000 N   0  0  0  0  0  0  0  0  0  0  0  0
    4.6523   -8.8139    0.0000 C   0  0  0  0  0  0  0  0  0  0  0  0
    6.1195   -9.1258    0.0000 C   0  0  0  0  0  0  0  0  0  0  0  0
    3.1851   -8.5021    0.0000 C   0  0  0  0  0  0  0  0  0  0  0  0
    4.3405  -10.2812    0.0000 C   0  0  0  0  0  0  0  0  0  0  0  0
    5.8395  -10.3335    0.0000 C   0  0  0  0  0  0  0  0  0  0  0  0
    6.5437  -11.6579    0.0000 C   0  0  0  0  0  0  0  0  0  0  0  0
    5.7489  -12.9300    0.0000 C   0  0  0  0  0  0  0  0  0  0  0  0
    4.2498  -12.8777    0.0000 C   0  0  0  0  0  0  0  0  0  0  0  0
    3.5456  -11.5532    0.0000 C   0  0  0  0  0  0  0  0  0  0  0  0
    4.3981   -1.2257    0.0000 O   0  0  0  0  0  0  0  0  0  0  0  0
    4.7100   -2.6930    0.0000 C   0  0  0  0  0  0  0  0  0  0  0  0
    7.0567   -3.8781    0.0000 H   0  0  0  0  0  0  0  0  0  0  0  0
    4.7048   -3.4210    0.0000 H   0  0  0  0  0  0  0  0  0  0  0  0
    7.9837   -1.0249    0.0000 H   0  0  0  0  0  0  0  0  0  0  0  0
    6.6275    0.7817    0.0000 H   0  0  0  0  0  0  0  0  0  0  0  0
    3.5250   -0.2394    0.0000 H   0  0  0  0  0  0  0  0  0  0  0  0
    5.6238    1.8964    0.0000 H   0  0  0  0  0  0  0  0  0  0  0  0
    4.6201    3.0111    0.0000 H   0  0  0  0  0  0  0  0  0  0  0  0
    2.1390    4.5776    0.0000 H   0  0  0  0  0  0  0  0  0  0  0  0
    3.6164    4.1258    0.0000 H   0  0  0  0  0  0  0  0  0  0  0  0
    1.1773    2.4180    0.0000 H   0  0  0  0  0  0  0  0  0  0  0  0
    3.2510   -0.2251    0.0000 H   0  0  0  0  0  0  0  0  0  0  0  0
   -0.1121    2.1708    0.0000 H   0  0  0  0  0  0  0  0  0  0  0  0
   -0.1569    5.7744    0.0000 H   0  0  0  0  0  0  0  0  0  0  0  0
    1.9615    5.6634    0.0000 H   0  0  0  0  0  0  0  0  0  0  0  0
   -0.2679    3.6560    0.0000 H   0  0  0  0  0  0  0  0  0  0  0  0
    2.5047   -0.8603    0.0000 H   0  0  0  0  0  0  0  0  0  0  0  0
   -1.3442    2.2172    0.0000 H   0  0  0  0  0  0  0  0  0  0  0  0
   -2.3673   -0.8986    0.0000 H   0  0  0  0  0  0  0  0  0  0  0  0
   -3.9666    2.8576    0.0000 H   0  0  0  0  0  0  0  0  0  0  0  0
   -3.8591   -1.0554    0.0000 H   0  0  0  0  0  0  0  0  0  0  0  0
   -4.3533    1.8980    0.0000 H   0  0  0  0  0  0  0  0  0  0  0  0
   -7.2710    2.7067    0.0000 H   0  0  0  0  0  0  0  0  0  0  0  0
   -7.6028    0.6115    0.0000 H   0  0  0  0  0  0  0  0  0  0  0  0
   -5.1758    2.3748    0.0000 H   0  0  0  0  0  0  0  0  0  0  0  0
    2.7948   -1.4447    0.0000 H   0  0  0  0  0  0  0  0  0  0  0  0
    2.3694   -3.4459    0.0000 H   0  0  0  0  0  0  0  0  0  0  0  0
   -1.9250   -4.9102    0.0000 H   0  0  0  0  0  0  0  0  0  0  0  0
   -4.5773   -2.2516    0.0000 H   0  0  0  0  0  0  0  0  0  0  0  0
   -1.5856   -5.9545    0.0000 H   0  0  0  0  0  0  0  0  0  0  0  0
    1.2998   -6.7548    0.0000 H   0  0  0  0  0  0  0  0  0  0  0  0
   -1.8975   -7.4217    0.0000 H   0  0  0  0  0  0  0  0  0  0  0  0
    1.0640   -7.8643    0.0000 H   0  0  0  0  0  0  0  0  0  0  0  0
    0.7251   -9.5127    0.0000 H   0  0  0  0  0  0  0  0  0  0  0  0
   -2.2094   -8.8890    0.0000 H   0  0  0  0  0  0  0  0  0  0  0  0
   -1.3659  -12.1353    0.0000 H   0  0  0  0  0  0  0  0  0  0  0  0
   -2.5212  -10.3562    0.0000 H   0  0  0  0  0  0  0  0  0  0  0  0
    0.4132  -10.9799    0.0000 H   0  0  0  0  0  0  0  0  0  0  0  0
    2.4371   -3.0777    0.0000 H   0  0  0  0  0  0  0  0  0  0  0  0
    1.8744   -6.5681    0.0000 H   0  0  0  0  0  0  0  0  0  0  0  0
    3.7385   -4.2246    0.0000 H   0  0  0  0  0  0  0  0  0  0  0  0
    4.8532   -5.2283    0.0000 H   0  0  0  0  0  0  0  0  0  0  0  0
    2.7174   -7.3271    0.0000 H   0  0  0  0  0  0  0  0  0  0  0  0
    6.3236   -6.7128    0.0000 H   0  0  0  0  0  0  0  0  0  0  0  0
    7.6138   -9.2565    0.0000 H   0  0  0  0  0  0  0  0  0  0  0  0
    6.1720  -10.6249    0.0000 H   0  0  0  0  0  0  0  0  0  0  0  0
    6.6079   -7.7075    0.0000 H   0  0  0  0  0  0  0  0  0  0  0  0
    1.7668   -8.0137    0.0000 H   0  0  0  0  0  0  0  0  0  0  0  0
    2.5275   -9.8502    0.0000 H   0  0  0  0  0  0  0  0  0  0  0  0
    2.9503   -7.0206    0.0000 H   0  0  0  0  0  0  0  0  0  0  0  0
    2.8916   -9.8930    0.0000 H   0  0  0  0  0  0  0  0  0  0  0  0
    7.3120  -10.0473    0.0000 H   0  0  0  0  0  0  0  0  0  0  0  0
    5.9964   -8.8417    0.0000 H   0  0  0  0  0  0  0  0  0  0  0  0
    7.6585  -12.6616    0.0000 H   0  0  0  0  0  0  0  0  0  0  0  0
    7.7258  -10.7344    0.0000 H   0  0  0  0  0  0  0  0  0  0  0  0
    5.4370  -14.3972    0.0000 H   0  0  0  0  0  0  0  0  0  0  0  0
    7.1396  -13.4919    0.0000 H   0  0  0  0  0  0  0  0  0  0  0  0
    2.8232  -13.3412    0.0000 H   0  0  0  0  0  0  0  0  0  0  0  0
    4.4585  -14.3631    0.0000 H   0  0  0  0  0  0  0  0  0  0  0  0
    2.3168  -10.6929    0.0000 H   0  0  0  0  0  0  0  0  0  0  0  0
    2.3636  -12.4767    0.0000 H   0  0  0  0  0  0  0  0  0  0  0  0
    5.0218   -4.1602    0.0000 H   0  0  0  0  0  0  0  0  0  0  0  0
    3.2427   -3.0048    0.0000 H   0  0  0  0  0  0  0  0  0  0  0  0
    6.2090   -2.7454    0.0000 H   0  0  0  0  0  0  0  0  0  0  0  0
  1  2  2  3
  2  3  1  0
  3  4  1  0
  4  5  1  0
  5  6  1  0
  5  7  1  0
  7  8  1  0
  8  9  1  0
  9 10  1  0
  7 11  1  0
 11 12  1  0
 12 13  1  0
 13 14  1  0
 14 15  1  0
 14 16  1  0
 16 17  1  0
 17 18  1  0
 13 19  1  0
 19 20  1  0
 20 21  1  0
 21 22  1  0
 22 23  1  0
 23 24  1  0
 24 25  1  0
 23 26  1  0
 26 27  1  0
 27 28  1  0
 28 29  1  0
 29 30  1  0
 26 31  1  0
 31 32  1  0
 32 33  1  0
 33 34  1  0
 34 35  1  0
 35 36  1  0
 35 37  1  0
 35 38  1  0
 38 39  1  0
 39 40  1  0
 40 41  1  0
 41 42  1  0
 42 43  1  0
  3 44  1  0
 44 45  1  0
 20 11  1  0
 43 38  1  0
 22 20  1  0
  1 46  1  0
  1 47  1  0
  2 48  1  0
  3 49  1  0
  4 50  1  0
  4 51  1  0
  5 52  1  0
  6 53  1  0
  6 54  1  0
  6 55  1  0
  7 56  1  0
  8 57  1  0
 10 58  1  0
 10 59  1  0
 10 60  1  0
 11 61  1  0
 13 62  1  0
 14 63  1  0
 15 64  1  0
 16 65  1  0
 16 66  1  0
 18 67  1  0
 18 68  1  0
 18 69  1  0
 21 70  1  0
 21 71  1  0
 23 72  1  0
 25 73  1  0
 27 74  1  0
 27 75  1  0
 28 76  1  0
 28 77  1  0
 29 78  1  0
 29 79  1  0
 30 80  1  0
 30 81  1  0
 30 82  1  0
 31 83  1  0
 32 84  1  0
 32 85  1  0
 33 86  1  0
 33 87  1  0
 34 88  1  0
 36 89  1  0
 36 90  1  0
 36 91  1  0
 37 92  1  0
 37 93  1  0
 37 94  1  0
 38 95  1  0
 39 96  1  0
 39 97  1  0
 40 98  1  0
 40 99  1  0
 41100  1  0
 41101  1  0
 42102  1  0
 42103  1  0
 43104  1  0
 43105  1  0
 45106  1  0
 45107  1  0
 45108  1  0
M  RAD  2  12   2  19   2
M  END
$$$$
