
     RDKit          2D

 78 81  0  0  0  0  0  0  0  0999 V2000
   -3.7221    9.1308    0.0000 C   0  0  0  0  0  0  0  0  0  0  0  0
   -4.9357    8.2491    0.0000 C   0  0  0  0  0  0  0  0  0  0  0  0
   -6.1492    7.3675    0.0000 C   0  0  0  0  0  0  0  0  0  0  0  0
   -7.3627    6.4858    0.0000 C   0  0  0  0  0  0  0  0  0  0  0  0
   -8.5762    5.6041    0.0000 C   0  0  0  0  0  0  0  0  0  0  0  0
   -9.7898    4.7224    0.0000 C   0  0  0  0  0  0  0  0  0  0  0  0
  -11.0033    3.8407    0.0000 C   0  0  0  0  0  0  0  0  0  0  0  0
  -10.6715    5.9359    0.0000 N   0  0  0  0  0  0  0  0  0  0  0  0
  -12.1632    5.7792    0.0000 C   0  0  0  0  0  0  0  0  0  0  0  0
   -7.6946    4.3906    0.0000 C   0  0  0  0  0  0  0  0  0  0  0  0
   -6.8129    3.1771    0.0000 C   0  0  0  0  0  0  0  0  0  0  0  0
   -5.9312    1.9635    0.0000 C   0  0  0  0  0  0  0  0  0  0  0  0
   -5.0495    0.7500    0.0000 C   0  0  0  0  0  0  0  0  0  0  0  0
   -4.1679    1.9635    0.0000 C   0  0  0  0  0  0  0  0  0  0  0  0
   -2.7413    2.4271    0.0000 C   0  0  0  0  0  0  0  0  0  0  0  0
   -1.3147    1.9635    0.0000 C   0  0  0  0  0  0  0  0  0  0  0  0
   -0.4330    0.7500    0.0000 C   0  0  0  0  0  0  0  0  0  0  0  0
    0.8660    0.0000    0.0000 C   0  0  0  0  0  0  0  0  0  0  0  0
   -0.4330   -0.7500    0.0000 C   0  0  0  0  0  0  0  0  0  0  0  0
   -1.3147   -1.9635    0.0000 C   0  0  0  0  0  0  0  0  0  0  0  0
   -1.6266   -3.4307    0.0000 C   0  0  0  0  0  0  0  0  0  0  0  0
   -0.2358   -3.9927    0.0000 C   0  0  0  0  0  0  0  0  0  0  0  0
    1.1550   -4.5546    0.0000 C   0  0  0  0  0  0  0  0  0  0  0  0
   -2.7413   -2.4271    0.0000 C   0  0  0  0  0  0  0  0  0  0  0  0
   -4.1679   -1.9635    0.0000 C   0  0  0  0  0  0  0  0  0  0  0  0
   -5.0495   -0.7500    0.0000 O   0  0  0  0  0  0  0  0  0  0  0  0
   -8.9081    3.5089    0.0000 C   0  0  0  0  0  0  0  0  0  0  0  0
   -9.7469    2.2653    0.0000 C   0  0  0  0  0  0  0  0  0  0  0  0
   -8.2505    2.1607    0.0000 C   0  0  0  0  0  0  0  0  0  0  0  0
   -2.5086   10.0125    0.0000 H   0  0  0  0  0  0  0  0  0  0  0  0
   -4.6038   10.3443    0.0000 H   0  0  0  0  0  0  0  0  0  0  0  0
   -2.8405    7.9173    0.0000 H   0  0  0  0  0  0  0  0  0  0  0  0
   -5.8174    9.4627    0.0000 H   0  0  0  0  0  0  0  0  0  0  0  0
   -4.0540    7.0356    0.0000 H   0  0  0  0  0  0  0  0  0  0  0  0
   -5.2675    6.1539    0.0000 H   0  0  0  0  0  0  0  0  0  0  0  0
   -7.0309    8.5810    0.0000 H   0  0  0  0  0  0  0  0  0  0  0  0
   -6.3397    5.3888    0.0000 H   0  0  0  0  0  0  0  0  0  0  0  0
   -8.2444    7.6993    0.0000 H   0  0  0  0  0  0  0  0  0  0  0  0
   -9.3034    6.9161    0.0000 H   0  0  0  0  0  0  0  0  0  0  0  0
   -9.4912    3.9833    0.0000 H   0  0  0  0  0  0  0  0  0  0  0  0
  -12.2168    2.9591    0.0000 H   0  0  0  0  0  0  0  0  0  0  0  0
  -12.2614    4.6576    0.0000 H   0  0  0  0  0  0  0  0  0  0  0  0
  -10.4415    2.4499    0.0000 H   0  0  0  0  0  0  0  0  0  0  0  0
  -10.2329    7.3704    0.0000 H   0  0  0  0  0  0  0  0  0  0  0  0
  -13.6550    5.6224    0.0000 H   0  0  0  0  0  0  0  0  0  0  0  0
  -12.3200    7.2709    0.0000 H   0  0  0  0  0  0  0  0  0  0  0  0
  -12.1895    4.2794    0.0000 H   0  0  0  0  0  0  0  0  0  0  0  0
   -6.3826    5.1178    0.0000 H   0  0  0  0  0  0  0  0  0  0  0  0
   -5.5994    4.0587    0.0000 H   0  0  0  0  0  0  0  0  0  0  0  0
   -7.7770    2.0279    0.0000 H   0  0  0  0  0  0  0  0  0  0  0  0
   -4.8342    2.9866    0.0000 H   0  0  0  0  0  0  0  0  0  0  0  0
   -7.1447    1.0818    0.0000 H   0  0  0  0  0  0  0  0  0  0  0  0
   -6.4761    0.2865    0.0000 H   0  0  0  0  0  0  0  0  0  0  0  0
   -4.1679    3.4635    0.0000 H   0  0  0  0  0  0  0  0  0  0  0  0
   -5.4399    2.7585    0.0000 H   0  0  0  0  0  0  0  0  0  0  0  0
   -2.0141    3.7390    0.0000 H   0  0  0  0  0  0  0  0  0  0  0  0
   -3.4685    3.7390    0.0000 H   0  0  0  0  0  0  0  0  0  0  0  0
    0.0448    2.5975    0.0000 H   0  0  0  0  0  0  0  0  0  0  0  0
   -1.1318    3.4523    0.0000 H   0  0  0  0  0  0  0  0  0  0  0  0
    0.6991    1.7341    0.0000 H   0  0  0  0  0  0  0  0  0  0  0  0
    1.8302    1.1491    0.0000 H   0  0  0  0  0  0  0  0  0  0  0  0
    1.8302   -1.1491    0.0000 H   0  0  0  0  0  0  0  0  0  0  0  0
    0.8106   -1.5887    0.0000 H   0  0  0  0  0  0  0  0  0  0  0  0
    0.0556   -2.5736    0.0000 H   0  0  0  0  0  0  0  0  0  0  0  0
   -2.4214   -4.7028    0.0000 H   0  0  0  0  0  0  0  0  0  0  0  0
   -0.7977   -5.3834    0.0000 H   0  0  0  0  0  0  0  0  0  0  0  0
    0.6460   -2.7792    0.0000 H   0  0  0  0  0  0  0  0  0  0  0  0
    2.5458   -5.1165    0.0000 H   0  0  0  0  0  0  0  0  0  0  0  0
    0.5931   -5.9453    0.0000 H   0  0  0  0  0  0  0  0  0  0  0  0
    1.7169   -3.1638    0.0000 H   0  0  0  0  0  0  0  0  0  0  0  0
   -3.3273   -3.8078    0.0000 H   0  0  0  0  0  0  0  0  0  0  0  0
   -5.5944   -2.4271    0.0000 H   0  0  0  0  0  0  0  0  0  0  0  0
   -4.3507   -3.4523    0.0000 H   0  0  0  0  0  0  0  0  0  0  0  0
  -10.2072    4.2588    0.0000 H   0  0  0  0  0  0  0  0  0  0  0  0
  -11.1172    2.8754    0.0000 H   0  0  0  0  0  0  0  0  0  0  0  0
  -10.1098    0.8099    0.0000 H   0  0  0  0  0  0  0  0  0  0  0  0
   -8.0937    0.6689    0.0000 H   0  0  0  0  0  0  0  0  0  0  0  0
   -6.7515    2.2130    0.0000 H   0  0  0  0  0  0  0  0  0  0  0  0
  1  2  1  0
  2  3  1  0
  3  4  1  0
  4  5  1  0
  5  6  1  0
  6  7  1  0
  6  8  1  0
  8  9  1  0
  5 10  1  0
 10 11  1  0
 11 12  1  0
 12 13  1  0
 13 14  1  0
 14 15  1  0
 15 16  1  0
 16 17  1  0
 17 18  1  0
 18 19  1  0
 19 20  1  0
 20 21  1  0
 21 22  1  0
 22 23  1  0
 21 24  1  0
 24 25  1  0
 25 26  1  0
 10 27  1  0
 27 28  1  0
 28 29  1  0
 26 13  1  0
 29 27  1  0
 19 17  1  0
 24 20  1  0
  1 30  1  0
  1 31  1  0
  1 32  1  0
  2 33  1  0
  2 34  1  0
  3 35  1  0
  3 36  1  0
  4 37  1  0
  4 38  1  0
  5 39  1  0
  6 40  1  0
  7 41  1  0
  7 42  1  0
  7 43  1  0
  8 44  1  0
  9 45  1  0
  9 46  1  0
  9 47  1  0
 10 48  1  0
 11 49  1  0
 11 50  1  0
 12 51  1  0
 12 52  1  0
 13 53  1  0
 14 54  1  0
 14 55  1  0
 15 56  1  0
 15 57  1  0
 16 58  1  0
 16 59  1  0
 17 60  1  0
 18 61  1  0
 18 62  1  0
 19 63  1  0
 20 64  1  0
 21 65  1  0
 22 66  1  0
 22 67  1  0
 23 68  1  0
 23 69  1  0
 23 70  1  0
 24 71  1  0
 25 72  1  0
 25 73  1  0
 27 74  1  0
 28 75  1  0
 28 76  1  0
 29 77  1  0
 29 78  1  0
M  END
$$$$
