
     RDKit          2D

 61 68  0  0  0  0  0  0  0  0999 V2000
    2.7490   -3.9320    0.0000 C   0  0  0  0  0  0  0  0  0  0  0  0
    1.6883   -2.8713    0.0000 C   0  0  0  0  0  0  0  0  0  0  0  0
    0.6276   -1.8107    0.0000 C   0  0  0  0  0  0  0  0  0  0  0  0
   -0.4330   -0.7500    0.0000 C   0  0  0  0  0  0  0  0  0  0  0  0
   -1.1830   -2.0490    0.0000 N   0  0  0  0  0  2  0  0  0  0  0  0
   -2.4821   -2.7990    0.0000 C   0  0  0  0  0  0  0  0  0  0  0  0
   -3.9821   -2.7990    0.0000 N   0  0  0  0  0  0  0  0  0  0  0  0
   -5.2811   -2.0490    0.0000 C   0  0  0  0  0  0  0  0  0  0  0  0
   -6.0311   -0.7500    0.0000 C   0  0  0  0  0  0  0  0  0  0  0  0
   -6.0311    0.7500    0.0000 C   0  0  0  0  0  0  0  0  0  0  0  0
   -6.9953    1.8991    0.0000 C   0  0  0  0  0  0  0  0  0  0  0  0
   -8.2943    1.1491    0.0000 C   0  0  0  0  0  0  0  0  0  0  0  0
   -8.2943    2.6491    0.0000 C   0  0  0  0  0  0  0  0  0  0  0  0
   -9.5933    1.8991    0.0000 C   0  0  0  0  0  0  0  0  0  0  0  0
  -10.5575    0.7500    0.0000 C   0  0  0  0  0  0  0  0  0  0  0  0
  -11.8566    0.0000    0.0000 C   0  0  0  0  0  0  0  0  0  0  0  0
  -11.8566    1.5000    0.0000 C   0  0  0  0  0  0  0  0  0  0  0  0
  -11.8566    3.0000    0.0000 N   0  0  0  0  0  0  0  0  0  0  0  0
  -13.1556    3.7500    0.0000 C   0  0  0  0  0  0  0  0  0  0  0  0
  -14.4546    3.0000    0.0000 C   0  0  0  0  0  0  0  0  0  0  0  0
  -13.1556    2.2500    0.0000 C   0  0  0  0  0  0  0  0  0  0  0  0
   -5.2811    2.0490    0.0000 C   0  0  0  0  0  0  0  0  0  0  0  0
   -3.9821    2.7990    0.0000 C   0  0  0  0  0  0  0  0  0  0  0  0
   -2.4821    2.7990    0.0000 C   0  0  0  0  0  0  0  0  0  0  0  0
   -1.1830    2.0490    0.0000 C   0  0  0  0  0  0  0  0  0  0  0  0
   -0.4330    0.7500    0.0000 C   0  0  0  0  0  0  0  0  0  0  0  0
    0.8660    0.0000    0.0000 N   0  0  0  0  0  2  0  0  0  0  0  0
    3.8096   -4.9926    0.0000 H   0  0  0  0  0  0  0  0  0  0  0  0
    3.8096   -2.8713    0.0000 H   0  0  0  0  0  0  0  0  0  0  0  0
    1.6883   -4.9926    0.0000 H   0  0  0  0  0  0  0  0  0  0  0  0
    2.7490   -1.8107    0.0000 H   0  0  0  0  0  0  0  0  0  0  0  0
    0.6276   -3.9320    0.0000 H   0  0  0  0  0  0  0  0  0  0  0  0
   -0.4330   -2.8713    0.0000 H   0  0  0  0  0  0  0  0  0  0  0  0
    1.6883   -0.7500    0.0000 H   0  0  0  0  0  0  0  0  0  0  0  0
   -2.9951   -4.2086    0.0000 H   0  0  0  0  0  0  0  0  0  0  0  0
   -1.3330   -3.7632    0.0000 H   0  0  0  0  0  0  0  0  0  0  0  0
   -4.3703   -4.2479    0.0000 H   0  0  0  0  0  0  0  0  0  0  0  0
   -6.4430   -2.4043    0.0000 H   0  0  0  0  0  0  0  0  0  0  0  0
   -5.5416   -3.5262    0.0000 H   0  0  0  0  0  0  0  0  0  0  0  0
   -7.5229   -0.5933    0.0000 H   0  0  0  0  0  0  0  0  0  0  0  0
   -6.9197   -1.5786    0.0000 H   0  0  0  0  0  0  0  0  0  0  0  0
   -7.4927    0.4126    0.0000 H   0  0  0  0  0  0  0  0  0  0  0  0
   -6.5611    2.5676    0.0000 H   0  0  0  0  0  0  0  0  0  0  0  0
   -8.4772   -0.3397    0.0000 H   0  0  0  0  0  0  0  0  0  0  0  0
   -8.2943    4.1491    0.0000 H   0  0  0  0  0  0  0  0  0  0  0  0
  -10.5575    3.0481    0.0000 H   0  0  0  0  0  0  0  0  0  0  0  0
   -9.5933   -0.3991    0.0000 H   0  0  0  0  0  0  0  0  0  0  0  0
  -11.3435   -1.4095    0.0000 H   0  0  0  0  0  0  0  0  0  0  0  0
  -13.3338   -0.2605    0.0000 H   0  0  0  0  0  0  0  0  0  0  0  0
  -13.1556    5.2500    0.0000 H   0  0  0  0  0  0  0  0  0  0  0  0
  -15.4188    4.1491    0.0000 H   0  0  0  0  0  0  0  0  0  0  0  0
  -15.4188    1.8509    0.0000 H   0  0  0  0  0  0  0  0  0  0  0  0
   -5.4710    3.1259    0.0000 H   0  0  0  0  0  0  0  0  0  0  0  0
   -6.2800    2.4939    0.0000 H   0  0  0  0  0  0  0  0  0  0  0  0
   -3.6447    4.2606    0.0000 H   0  0  0  0  0  0  0  0  0  0  0  0
   -5.0050    3.8961    0.0000 H   0  0  0  0  0  0  0  0  0  0  0  0
   -1.4591    3.8961    0.0000 H   0  0  0  0  0  0  0  0  0  0  0  0
   -2.8194    4.2606    0.0000 H   0  0  0  0  0  0  0  0  0  0  0  0
    0.2514    2.4876    0.0000 H   0  0  0  0  0  0  0  0  0  0  0  0
   -0.7444    3.4835    0.0000 H   0  0  0  0  0  0  0  0  0  0  0  0
    0.7490    1.6735    0.0000 H   0  0  0  0  0  0  0  0  0  0  0  0
  1  2  1  0
  2  3  1  0
  3  4  1  0
  4  5  1  0
  5  6  1  0
  6  7  1  0
  7  8  1  0
  8  9  1  0
  9 10  1  0
 10 11  1  0
 11 12  1  0
 12 13  1  0
 13 14  1  0
 14 15  1  0
 15 16  1  0
 16 17  1  0
 17 18  1  0
 18 19  1  0
 19 20  1  0
 20 21  1  0
 10 22  1  0
 22 23  1  0
 23 24  1  0
 24 25  1  0
 25 26  1  0
 26 27  1  0
 26  4  1  0
 27  4  1  0
 13 11  1  0
 17 15  1  0
 21 18  1  0
 14 12  1  0
 21 17  1  0
 21 19  1  0
  1 28  1  0
  1 29  1  0
  1 30  1  0
  2 31  1  0
  2 32  1  0
  3 33  1  0
  3 34  1  0
  6 35  1  0
  6 36  1  0
  7 37  1  0
  8 38  1  0
  8 39  1  0
  9 40  1  0
  9 41  1  0
 10 42  1  0
 11 43  1  0
 12 44  1  0
 13 45  1  0
 14 46  1  0
 15 47  1  0
 16 48  1  0
 16 49  1  0
 19 50  1  0
 20 51  1  0
 20 52  1  0
 22 53  1  0
 22 54  1  0
 23 55  1  0
 23 56  1  0
 24 57  1  0
 24 58  1  0
 25 59  1  0
 25 60  1  0
 26 61  1  0
M  RAD  2   5   2  27   2
M  END
$$$$
