
     RDKit          2D

 37 42  0  0  0  0  0  0  0  0999 V2000
  -10.7520   -6.9514    0.0000 C   0  0  0  0  0  0  0  0  0  0  0  0
  -10.7520   -5.4514    0.0000 C   0  0  0  0  0  0  0  0  0  0  0  0
  -12.0510   -4.7014    0.0000 C   0  0  0  0  0  0  0  0  0  0  0  0
  -10.7520   -3.9514    0.0000 C   0  0  0  0  0  0  0  0  0  0  0  0
  -10.7520   -2.4514    0.0000 I   0  0  0  0  0  0  0  0  0  0  0  0
   -9.4530   -4.7014    0.0000 C   0  0  0  0  0  0  0  0  0  0  0  0
   -8.4888   -5.8505    0.0000 C   0  0  0  0  0  0  0  0  0  0  0  0
   -7.1897   -6.6005    0.0000 C   0  0  0  0  0  0  0  0  0  0  0  0
   -7.1897   -5.1005    0.0000 C   0  0  0  0  0  0  0  0  0  0  0  0
   -5.7125   -4.8400    0.0000 C   0  0  0  0  0  0  0  0  0  0  0  0
   -5.1995   -3.4305    0.0000 C   0  0  0  0  0  0  0  0  0  0  0  0
   -3.7223   -3.1700    0.0000 C   0  0  0  0  0  0  0  0  0  0  0  0
   -3.2093   -1.7605    0.0000 C   0  0  0  0  0  0  0  0  0  0  0  0
   -1.7321   -1.5000    0.0000 C   0  0  0  0  0  0  0  0  0  0  0  0
   -1.7321    0.0000    0.0000 C   0  0  0  0  0  0  0  0  0  0  0  0
   -0.4330    0.7500    0.0000 C   0  0  0  0  0  0  0  0  0  0  0  0
    0.8660    0.0000    0.0000 C   0  0  0  0  0  0  0  0  0  0  0  0
   -0.4330   -0.7500    0.0000 C   0  0  0  0  0  0  0  0  0  0  0  0
  -10.7520   -8.4514    0.0000 H   0  0  0  0  0  0  0  0  0  0  0  0
  -12.2520   -6.9514    0.0000 H   0  0  0  0  0  0  0  0  0  0  0  0
   -9.8729   -7.0594    0.0000 H   0  0  0  0  0  0  0  0  0  0  0  0
  -13.0152   -5.8505    0.0000 H   0  0  0  0  0  0  0  0  0  0  0  0
  -13.0152   -3.5524    0.0000 H   0  0  0  0  0  0  0  0  0  0  0  0
   -8.6360   -3.4434    0.0000 H   0  0  0  0  0  0  0  0  0  0  0  0
   -8.9712   -6.5933    0.0000 H   0  0  0  0  0  0  0  0  0  0  0  0
   -7.7028   -8.0100    0.0000 H   0  0  0  0  0  0  0  0  0  0  0  0
   -5.7125   -6.8610    0.0000 H   0  0  0  0  0  0  0  0  0  0  0  0
   -7.5271   -3.6389    0.0000 H   0  0  0  0  0  0  0  0  0  0  0  0
   -4.7484   -5.9891    0.0000 H   0  0  0  0  0  0  0  0  0  0  0  0
   -6.1637   -2.2814    0.0000 H   0  0  0  0  0  0  0  0  0  0  0  0
   -2.7581   -4.3191    0.0000 H   0  0  0  0  0  0  0  0  0  0  0  0
   -4.1734   -0.6114    0.0000 H   0  0  0  0  0  0  0  0  0  0  0  0
   -1.2190   -2.9095    0.0000 H   0  0  0  0  0  0  0  0  0  0  0  0
   -3.0311    0.7500    0.0000 H   0  0  0  0  0  0  0  0  0  0  0  0
   -0.4330    2.2500    0.0000 H   0  0  0  0  0  0  0  0  0  0  0  0
    1.8302    1.1491    0.0000 H   0  0  0  0  0  0  0  0  0  0  0  0
    1.8302   -1.1491    0.0000 H   0  0  0  0  0  0  0  0  0  0  0  0
  2  1  1  6
  2  3  1  0
  3  4  1  0
  4  5  1  6
  4  6  1  0
  6  7  1  0
  7  8  1  0
  8  9  1  0
  9 10  1  0
 10 11  2  3
 11 12  1  0
 12 13  2  3
 13 14  1  0
 14 15  1  0
 15 16  1  0
 16 17  1  0
 18 17  1  6
  4  2  1  0
  9  7  1  0
 18 14  1  0
  6  2  1  0
 18 15  1  0
 18 16  1  0
  1 19  1  0
  1 20  1  0
  1 21  1  0
  3 22  1  0
  3 23  1  0
  6 24  1  6
  7 25  1  1
  8 26  1  0
  8 27  1  0
  9 28  1  6
 10 29  1  0
 11 30  1  0
 12 31  1  0
 13 32  1  0
 14 33  1  1
 15 34  1  6
 16 35  1  6
 17 36  1  0
 17 37  1  0
M  END
$$$$
