
     RDKit          3D

 45 51  0  0  0  0  0  0  0  0999 V2000
    9.5958  -15.6853  -11.8538 O   0  0  0  0  0  0  0  0  0  0  0  0
   11.8451  -14.6828  -11.9731 C   0  0  0  0  0  0  0  0  0  0  0  0
   11.9426  -14.5191  -10.5815 O   0  0  0  0  0  0  0  0  0  0  0  0
   11.3270  -17.7253  -13.7594 C   0  0  0  0  0  0  0  0  0  0  0  0
   10.8253  -18.2360  -12.5553 O   0  0  0  0  0  0  0  0  0  0  0  0
    9.6208  -16.8384  -11.1788 O   0  0  0  0  0  0  0  0  0  0  0  0
   10.8918  -15.8631  -12.3575 C   0  0  0  0  0  0  0  0  0  0  0  0
   10.8895  -16.2758  -13.8251 C   0  0  0  0  0  0  0  0  0  0  0  0
   11.8614  -17.4980  -10.4591 C   0  0  0  0  0  0  0  0  0  0  0  0
   11.3042  -13.3516  -12.5669 C   0  0  0  0  0  0  0  0  0  0  0  0
   12.1539  -20.0540  -10.0173 C   0  0  0  0  0  0  0  0  0  0  0  0
   11.3469  -21.1267   -9.5474 O   0  0  0  0  0  0  0  0  0  0  0  0
   12.6760  -23.7645   -9.0150 O   0  0  0  0  0  0  0  0  0  0  0  0
   12.6771  -22.8476   -8.0613 O   0  0  0  0  0  0  0  0  0  0  0  0
   12.6292  -23.0953  -10.2596 C   0  0  0  0  0  0  0  0  0  0  0  0
   11.3825  -18.7532   -9.6802 C   0  0  0  0  0  0  0  0  0  0  0  0
   13.4509  -20.1042   -9.2979 N   0  0  0  0  0  0  0  0  0  0  0  0
   15.6324  -18.9382   -9.5089 C   0  0  0  0  0  0  0  0  0  0  0  0
   11.3545  -22.2444  -10.4212 C   0  0  0  0  0  0  0  0  0  0  0  0
   13.8473  -23.0174   -7.2957 C   0  0  0  0  0  0  0  0  0  0  0  0
   14.6575  -19.9246  -10.1366 C   0  0  0  0  0  0  0  0  0  0  0  0
   13.5627  -22.7928   -5.7764 C   0  0  0  0  0  0  0  0  0  0  0  0
   14.8394  -22.0556   -5.2288 C   0  0  0  0  0  0  0  0  0  0  0  0
   13.0816  -24.1481   -5.0552 C   0  0  0  0  0  0  0  0  0  0  0  0
   12.4198  -25.2249   -5.9145 C   0  0  0  0  0  0  0  0  0  0  0  0
   13.1437  -14.9688  -12.4638 O   0  0  0  0  0  0  0  0  0  0  0  0
   11.2016  -25.2583   -5.0059 C   0  0  0  0  0  0  0  0  0  0  0  0
   15.9292  -23.5770   -3.6509 C   0  0  0  0  0  0  0  0  0  0  0  0
   17.9933  -23.1614   -2.3068 C   0  0  0  0  0  0  0  0  0  0  0  0
   10.9047  -17.1744  -11.6289 C   0  0  0  0  0  0  0  0  0  0  0  0
   10.2590  -24.1502   -4.6042 C   0  0  0  0  0  0  0  0  0  0  0  0
   15.4896  -24.2998   -2.4269 N   0  0  0  0  0  0  0  0  0  0  0  0
   15.1747  -22.3150   -3.8312 N   0  0  0  0  0  0  0  0  0  0  0  0
    9.8858  -25.0493   -5.7631 C   0  0  0  0  0  0  0  0  0  0  0  0
   12.8199  -24.3866   -3.4836 C   0  0  0  0  0  0  0  0  0  0  0  0
   17.4262  -22.0710   -1.6278 O   0  0  0  0  0  0  0  0  0  0  0  0
   14.4333  -23.6605   -1.6129 C   0  0  0  0  0  0  0  0  0  0  0  0
   11.7471  -23.9160   -4.3716 C   0  0  0  0  0  0  0  0  0  0  0  0
   13.1069  -23.3676   -2.3834 C   0  0  0  0  0  0  0  0  0  0  0  0
   14.1702  -24.5282   -0.3703 C   0  0  0  0  0  0  0  0  0  0  0  0
   13.2002  -26.5490   -6.0698 C   0  0  0  0  0  0  0  0  0  0  0  0
   17.3917  -23.3044   -3.6375 N   0  0  0  0  0  0  0  0  0  0  0  0
    9.5305  -24.4985   -3.3044 C   0  0  0  0  0  0  0  0  0  0  0  0
    9.7611  -24.2097   -7.0433 C   0  0  0  0  0  0  0  0  0  0  0  0
   13.4808  -27.3385   -4.7930 C   0  0  0  0  0  0  0  0  0  0  0  0
  3  2  1  0
  5  4  1  0
  6  1  1  0
  7  1  1  0
  7  2  1  0
  8  4  1  0
  8  7  1  0
 10  2  1  0
 12 11  1  0
 14 13  1  0
 15 13  1  0
 16  9  1  0
 16 11  1  0
 17 11  1  0
 19 12  1  0
 19 15  1  0
 20 14  1  0
 21 17  1  0
 21 18  1  0
 22 20  1  0
 23 22  1  0
 24 22  1  0
 25 24  1  0
 26  2  1  0
 27 25  1  0
 30  5  1  0
 30  6  1  0
 30  7  1  0
 30  9  1  0
 31 27  1  0
 32 28  1  0
 33 23  1  0
 33 28  1  0
 34 27  1  0
 34 31  1  0
 35 24  1  0
 36 29  1  0
 37 32  1  0
 38 24  1  0
 38 27  1  0
 38 31  1  0
 38 35  1  0
 39 35  1  0
 39 37  1  0
 40 37  1  0
 41 25  1  0
 42 28  1  0
 42 29  1  0
 43 31  1  0
 44 34  1  0
 45 41  1  0
M  END
$$$$
