
     RDKit          2D

 47 50  0  0  0  0  0  0  0  0999 V2000
   -9.9068   -0.7000    0.0000 C   0  0  0  0  0  0  0  0  0  0  0  0
   -8.7821    0.2926    0.0000 C   0  0  0  0  0  0  0  0  0  0  0  0
   -7.7896   -0.8321    0.0000 F   0  0  0  0  0  0  0  0  0  0  0  0
   -7.6574    1.2851    0.0000 C   0  0  0  0  0  0  0  0  0  0  0  0
   -8.4396    2.5650    0.0000 O   0  0  0  0  0  0  0  0  0  0  0  0
   -6.9400    2.6024    0.0000 C   0  0  0  0  0  0  0  0  0  0  0  0
   -6.7165    4.0857    0.0000 O   0  0  0  0  0  0  0  0  0  0  0  0
   -5.5181    2.1247    0.0000 C   0  0  0  0  0  0  0  0  0  0  0  0
   -5.2946    3.6080    0.0000 C   0  0  0  0  0  0  0  0  0  0  0  0
   -5.5918    5.0782    0.0000 F   0  0  0  0  0  0  0  0  0  0  0  0
   -3.8983    4.1560    0.0000 C   0  0  0  0  0  0  0  0  0  0  0  0
   -2.7255    3.2207    0.0000 C   0  0  0  0  0  0  0  0  0  0  0  0
   -1.4265    3.9707    0.0000 C   0  0  0  0  0  0  0  0  0  0  0  0
   -0.0302    3.4227    0.0000 C   0  0  0  0  0  0  0  0  0  0  0  0
    0.4120    1.9894    0.0000 C   0  0  0  0  0  0  0  0  0  0  0  0
   -0.4330    0.7500    0.0000 C   0  0  0  0  0  0  0  0  0  0  0  0
    0.8660    0.0000    0.0000 C   0  0  0  0  0  0  0  0  0  0  0  0
   -0.4330   -0.7500    0.0000 C   0  0  0  0  0  0  0  0  0  0  0  0
   -1.9288    0.6379    0.0000 O   0  0  0  0  0  0  0  0  0  0  0  0
   -2.9491    1.7375    0.0000 C   0  0  0  0  0  0  0  0  0  0  0  0
   -4.3454    1.1895    0.0000 C   0  0  0  0  0  0  0  0  0  0  0  0
   -5.4701    0.1969    0.0000 N   0  0  0  0  0  0  0  0  0  0  0  0
  -11.0314   -1.6925    0.0000 H   0  0  0  0  0  0  0  0  0  0  0  0
   -8.9142   -1.8246    0.0000 H   0  0  0  0  0  0  0  0  0  0  0  0
  -10.8993    0.4247    0.0000 H   0  0  0  0  0  0  0  0  0  0  0  0
   -9.7746    1.4172    0.0000 H   0  0  0  0  0  0  0  0  0  0  0  0
   -6.8370    0.2130    0.0000 H   0  0  0  0  0  0  0  0  0  0  0  0
   -7.8892    5.0209    0.0000 H   0  0  0  0  0  0  0  0  0  0  0  0
   -6.1638    0.9391    0.0000 H   0  0  0  0  0  0  0  0  0  0  0  0
   -6.0726    3.7815    0.0000 H   0  0  0  0  0  0  0  0  0  0  0  0
   -2.9030    5.2782    0.0000 H   0  0  0  0  0  0  0  0  0  0  0  0
   -4.6804    5.4359    0.0000 H   0  0  0  0  0  0  0  0  0  0  0  0
   -4.1589    2.7786    0.0000 H   0  0  0  0  0  0  0  0  0  0  0  0
   -2.3051    5.1865    0.0000 H   0  0  0  0  0  0  0  0  0  0  0  0
   -0.7389    5.3038    0.0000 H   0  0  0  0  0  0  0  0  0  0  0  0
    0.3725    4.8677    0.0000 H   0  0  0  0  0  0  0  0  0  0  0  0
    1.4408    3.7163    0.0000 H   0  0  0  0  0  0  0  0  0  0  0  0
    1.7927    2.5754    0.0000 H   0  0  0  0  0  0  0  0  0  0  0  0
    1.5587    1.0223    0.0000 H   0  0  0  0  0  0  0  0  0  0  0  0
    1.9631    1.0230    0.0000 H   0  0  0  0  0  0  0  0  0  0  0  0
    1.8302   -1.1491    0.0000 H   0  0  0  0  0  0  0  0  0  0  0  0
    0.0800   -2.1595    0.0000 H   0  0  0  0  0  0  0  0  0  0  0  0
   -1.9102   -1.0105    0.0000 H   0  0  0  0  0  0  0  0  0  0  0  0
   -3.1021    0.2453    0.0000 H   0  0  0  0  0  0  0  0  0  0  0  0
   -3.7251   -0.1763    0.0000 H   0  0  0  0  0  0  0  0  0  0  0  0
   -5.1728   -1.2733    0.0000 H   0  0  0  0  0  0  0  0  0  0  0  0
   -6.9653    0.3164    0.0000 H   0  0  0  0  0  0  0  0  0  0  0  0
  1  2  1  0
  2  3  1  0
  2  4  1  0
  4  5  1  0
  5  6  1  0
  6  7  1  0
  6  8  1  0
  8  9  1  0
  9 10  1  0
  9 11  1  0
 11 12  1  0
 12 13  1  0
 13 14  1  0
 14 15  1  0
 15 16  1  0
 16 17  1  0
 17 18  1  0
 16 19  1  0
 19 20  1  0
 20 21  1  0
 21 22  1  0
  6  4  1  0
 21  8  1  0
 20 12  1  0
 18 16  1  0
  1 23  1  0
  1 24  1  0
  1 25  1  0
  2 26  1  0
  4 27  1  0
  7 28  1  0
  8 29  1  0
  9 30  1  0
 11 31  1  0
 11 32  1  0
 12 33  1  0
 13 34  1  0
 13 35  1  0
 14 36  1  0
 14 37  1  0
 15 38  1  0
 15 39  1  0
 17 40  1  0
 17 41  1  0
 18 42  1  0
 18 43  1  0
 20 44  1  0
 21 45  1  0
 22 46  1  0
 22 47  1  0
M  END
$$$$
