
     RDKit          2D

 99103  0  0  0  0  0  0  0  0999 V2000
    1.5081    7.9944    0.0000 C   0  0  0  0  0  0  0  0  0  0  0  0
    1.1199    6.5456    0.0000 C   0  0  0  0  0  0  0  0  0  0  0  0
    0.7317    5.0967    0.0000 C   0  0  0  0  0  0  0  0  0  0  0  0
    0.3434    3.6478    0.0000 C   0  0  0  0  0  0  0  0  0  0  0  0
   -0.0448    2.1989    0.0000 C   0  0  0  0  0  0  0  0  0  0  0  0
   -1.4937    2.5871    0.0000 P   0  0  0  0  0  0  0  0  0  0  0  0
   -2.2437    3.8862    0.0000 O   0  0  0  0  0  0  0  0  0  0  0  0
   -1.8819    1.1382    0.0000 C   0  0  0  0  0  0  0  0  0  0  0  0
   -2.2701   -0.3107    0.0000 C   0  0  0  0  0  0  0  0  0  0  0  0
   -2.6584   -1.7595    0.0000 O   0  0  0  0  0  0  0  0  0  0  0  0
   -4.1072   -2.1478    0.0000 P   0  0  0  0  0  0  0  0  0  0  0  0
   -4.4955   -3.5967    0.0000 O   0  0  0  0  0  0  0  0  0  0  0  0
   -5.9444   -3.9849    0.0000 C   0  0  0  0  0  0  0  0  0  0  0  0
   -7.3933   -4.3731    0.0000 C   0  0  0  0  0  0  0  0  0  0  0  0
   -8.8421   -4.7614    0.0000 C   0  0  0  0  0  0  0  0  0  0  0  0
   -7.0050   -5.8220    0.0000 N   0  0  0  0  0  0  0  0  0  0  0  0
   -5.1679   -1.0871    0.0000 O   0  0  0  0  0  0  0  0  0  0  0  0
   -6.6168   -1.4753    0.0000 P   0  0  0  0  0  0  0  0  0  0  0  0
   -7.3668   -2.7744    0.0000 C   0  0  0  0  0  0  0  0  0  0  0  0
   -8.6658   -2.0244    0.0000 C   0  0  0  0  0  0  0  0  0  0  0  0
   -9.9649   -1.2744    0.0000 C   0  0  0  0  0  0  0  0  0  0  0  0
   -7.9158   -0.7253    0.0000 N   0  0  0  0  0  0  0  0  0  0  0  0
   -8.3041    0.7235    0.0000 O   0  0  0  0  0  0  0  0  0  0  0  0
   -0.4330    0.7500    0.0000 C   0  0  0  0  0  0  0  0  0  0  0  0
    0.8660    0.0000    0.0000 C   0  0  0  0  0  0  0  0  0  0  0  0
   -0.4330   -0.7500    0.0000 C   0  0  0  0  0  0  0  0  0  0  0  0
    0.0800   -2.1595    0.0000 C   0  0  0  0  0  0  0  0  0  0  0  0
   -0.7172    5.4849    0.0000 C   0  0  0  0  0  0  0  0  0  0  0  0
   -1.9459    6.3453    0.0000 P   0  0  0  0  0  0  0  0  0  0  0  0
   -0.5865    6.9792    0.0000 C   0  0  0  0  0  0  0  0  0  0  0  0
   -0.9747    8.4281    0.0000 C   0  0  0  0  0  0  0  0  0  0  0  0
    0.9078    7.1099    0.0000 C   0  0  0  0  0  0  0  0  0  0  0  0
    2.4021    7.2407    0.0000 C   0  0  0  0  0  0  0  0  0  0  0  0
    3.8964    7.3714    0.0000 C   0  0  0  0  0  0  0  0  0  0  0  0
    5.3907    7.5021    0.0000 C   0  0  0  0  0  0  0  0  0  0  0  0
    3.7657    8.8657    0.0000 C   0  0  0  0  0  0  0  0  0  0  0  0
    3.6349   10.3600    0.0000 C   0  0  0  0  0  0  0  0  0  0  0  0
    3.5042   11.8543    0.0000 C   0  0  0  0  0  0  0  0  0  0  0  0
    3.8924   13.3032    0.0000 C   0  0  0  0  0  0  0  0  0  0  0  0
    4.9531   12.2425    0.0000 C   0  0  0  0  0  0  0  0  0  0  0  0
    6.1818   13.1029    0.0000 C   0  0  0  0  0  0  0  0  0  0  0  0
    1.3512    9.4862    0.0000 H   0  0  0  0  0  0  0  0  0  0  0  0
    3.0079    7.9683    0.0000 H   0  0  0  0  0  0  0  0  0  0  0  0
    0.1962    8.7217    0.0000 H   0  0  0  0  0  0  0  0  0  0  0  0
   -0.1920    7.2728    0.0000 H   0  0  0  0  0  0  0  0  0  0  0  0
    2.5107    5.9836    0.0000 H   0  0  0  0  0  0  0  0  0  0  0  0
    2.1806    4.7084    0.0000 H   0  0  0  0  0  0  0  0  0  0  0  0
   -1.1420    3.8565    0.0000 H   0  0  0  0  0  0  0  0  0  0  0  0
    1.7923    3.2595    0.0000 H   0  0  0  0  0  0  0  0  0  0  0  0
    1.4406    1.9902    0.0000 H   0  0  0  0  0  0  0  0  0  0  0  0
   -1.4937    5.1852    0.0000 H   0  0  0  0  0  0  0  0  0  0  0  0
   -3.3308    1.5265    0.0000 H   0  0  0  0  0  0  0  0  0  0  0  0
   -3.7190    0.0776    0.0000 H   0  0  0  0  0  0  0  0  0  0  0  0
   -0.9582   -1.0379    0.0000 H   0  0  0  0  0  0  0  0  0  0  0  0
   -6.3326   -2.5360    0.0000 H   0  0  0  0  0  0  0  0  0  0  0  0
   -5.3824   -5.3757    0.0000 H   0  0  0  0  0  0  0  0  0  0  0  0
   -8.1205   -3.0612    0.0000 H   0  0  0  0  0  0  0  0  0  0  0  0
  -10.2910   -5.1496    0.0000 H   0  0  0  0  0  0  0  0  0  0  0  0
   -8.6334   -6.2468    0.0000 H   0  0  0  0  0  0  0  0  0  0  0  0
   -9.4041   -3.3706    0.0000 H   0  0  0  0  0  0  0  0  0  0  0  0
   -7.9285   -7.0041    0.0000 H   0  0  0  0  0  0  0  0  0  0  0  0
   -5.6143   -6.3840    0.0000 H   0  0  0  0  0  0  0  0  0  0  0  0
   -8.4088   -3.8533    0.0000 H   0  0  0  0  0  0  0  0  0  0  0  0
   -6.2878   -3.8164    0.0000 H   0  0  0  0  0  0  0  0  0  0  0  0
   -9.5686   -3.2223    0.0000 H   0  0  0  0  0  0  0  0  0  0  0  0
  -11.2639   -0.5244    0.0000 H   0  0  0  0  0  0  0  0  0  0  0  0
  -10.7149   -2.5734    0.0000 H   0  0  0  0  0  0  0  0  0  0  0  0
   -9.2149    0.0247    0.0000 H   0  0  0  0  0  0  0  0  0  0  0  0
   -9.7530    1.1118    0.0000 H   0  0  0  0  0  0  0  0  0  0  0  0
    1.9631    1.0230    0.0000 H   0  0  0  0  0  0  0  0  0  0  0  0
    1.9631   -1.0230    0.0000 H   0  0  0  0  0  0  0  0  0  0  0  0
   -1.8033   -1.3602    0.0000 H   0  0  0  0  0  0  0  0  0  0  0  0
    0.5930   -3.5691    0.0000 H   0  0  0  0  0  0  0  0  0  0  0  0
   -1.3295   -2.6726    0.0000 H   0  0  0  0  0  0  0  0  0  0  0  0
    1.5416   -1.8222    0.0000 H   0  0  0  0  0  0  0  0  0  0  0  0
   -1.5121    4.2128    0.0000 H   0  0  0  0  0  0  0  0  0  0  0  0
   -3.4402    6.4760    0.0000 H   0  0  0  0  0  0  0  0  0  0  0  0
   -1.3629    9.8770    0.0000 H   0  0  0  0  0  0  0  0  0  0  0  0
    0.3372    9.1554    0.0000 H   0  0  0  0  0  0  0  0  0  0  0  0
   -2.4236    8.0398    0.0000 H   0  0  0  0  0  0  0  0  0  0  0  0
    0.7771    8.6042    0.0000 H   0  0  0  0  0  0  0  0  0  0  0  0
    1.3962    5.6917    0.0000 H   0  0  0  0  0  0  0  0  0  0  0  0
    2.7140    5.7734    0.0000 H   0  0  0  0  0  0  0  0  0  0  0  0
    2.2714    8.7349    0.0000 H   0  0  0  0  0  0  0  0  0  0  0  0
    4.0271    5.8771    0.0000 H   0  0  0  0  0  0  0  0  0  0  0  0
    6.8850    7.6329    0.0000 H   0  0  0  0  0  0  0  0  0  0  0  0
    5.5214    6.0078    0.0000 H   0  0  0  0  0  0  0  0  0  0  0  0
    5.4431    9.0012    0.0000 H   0  0  0  0  0  0  0  0  0  0  0  0
    5.2329    9.1776    0.0000 H   0  0  0  0  0  0  0  0  0  0  0  0
    2.2841    9.1004    0.0000 H   0  0  0  0  0  0  0  0  0  0  0  0
    5.1340   10.3076    0.0000 H   0  0  0  0  0  0  0  0  0  0  0  0
    2.1358   10.4124    0.0000 H   0  0  0  0  0  0  0  0  0  0  0  0
    2.0099   11.9850    0.0000 H   0  0  0  0  0  0  0  0  0  0  0  0
    2.5330   13.9371    0.0000 H   0  0  0  0  0  0  0  0  0  0  0  0
    4.5966   14.6276    0.0000 H   0  0  0  0  0  0  0  0  0  0  0  0
    5.7480   10.9704    0.0000 H   0  0  0  0  0  0  0  0  0  0  0  0
    7.4105   13.9632    0.0000 H   0  0  0  0  0  0  0  0  0  0  0  0
    7.0422   11.8741    0.0000 H   0  0  0  0  0  0  0  0  0  0  0  0
    5.4776   14.4273    0.0000 H   0  0  0  0  0  0  0  0  0  0  0  0
  1  2  1  0
  2  3  1  0
  3  4  1  0
  4  5  1  0
  5  6  1  0
  6  7  1  0
  6  8  1  0
  8  9  1  0
  9 10  1  0
 10 11  1  0
 11 12  1  0
 12 13  1  0
 13 14  1  0
 14 15  1  0
 14 16  1  0
 11 17  1  0
 17 18  1  0
 18 19  1  0
 19 20  1  0
 20 21  1  0
 20 22  1  0
 22 23  1  0
  8 24  1  0
 24 25  1  6
 25 26  1  0
 26 27  1  0
  3 28  1  0
 28 29  1  0
 29 30  1  0
 30 31  1  1
 30 32  1  0
 32 33  1  0
 33 34  1  0
 34 35  1  0
 34 36  1  0
 36 37  1  0
 37 38  1  0
 38 39  1  0
 39 40  1  0
 40 41  1  0
 24  5  1  0
 30 28  1  0
 40 38  1  0
 22 18  1  0
 26 24  1  0
  1 42  1  0
  1 43  1  0
  1 44  1  0
  2 45  1  0
  2 46  1  0
  3 47  1  1
  4 48  1  0
  4 49  1  0
  5 50  1  1
  7 51  1  0
  8 52  1  6
  9 53  1  0
  9 54  1  0
 13 55  1  0
 13 56  1  0
 14 57  1  6
 15 58  1  0
 15 59  1  0
 15 60  1  0
 16 61  1  0
 16 62  1  0
 19 63  1  0
 19 64  1  0
 20 65  1  6
 21 66  1  0
 21 67  1  0
 21 68  1  0
 23 69  1  0
 25 70  1  0
 25 71  1  0
 26 72  1  1
 27 73  1  0
 27 74  1  0
 27 75  1  0
 28 76  1  6
 29 77  1  0
 31 78  1  0
 31 79  1  0
 31 80  1  0
 32 81  1  0
 32 82  1  0
 33 83  1  0
 33 84  1  0
 34 85  1  6
 35 86  1  0
 35 87  1  0
 35 88  1  0
 36 89  1  0
 36 90  1  0
 37 91  1  0
 37 92  1  0
 38 93  1  1
 39 94  1  0
 39 95  1  0
 40 96  1  6
 41 97  1  0
 41 98  1  0
 41 99  1  0
M  END
$$$$
