
     RDKit          2D

 25 27  0  0  0  0  0  0  0  0999 V2000
   -3.3874    1.2709    0.0000 C   0  0  0  0  0  0  0  0  0  0  0  0
   -1.9102    1.0105    0.0000 C   0  0  0  0  0  0  0  0  0  0  0  0
   -0.4330    0.7500    0.0000 C   0  0  0  0  0  0  0  0  0  0  0  0
    1.0442    1.0105    0.0000 N   0  0  0  0  0  0  0  0  0  0  0  0
    0.0800    2.1595    0.0000 C   0  0  0  0  0  0  0  0  0  0  0  0
    0.5930    3.5691    0.0000 N   0  0  0  0  0  0  0  0  0  0  0  0
   -0.8842    3.3086    0.0000 C   0  0  0  0  0  0  0  0  0  0  0  0
   -1.3972    4.7181    0.0000 F   0  0  0  0  0  0  0  0  0  0  0  0
   -1.6995    2.9625    0.0000 F   0  0  0  0  0  0  0  0  0  0  0  0
   -2.1707   -0.4667    0.0000 C   0  0  0  0  0  0  0  0  0  0  0  0
   -0.7612   -0.9798    0.0000 O   0  0  0  0  0  0  0  0  0  0  0  0
   -2.9207   -1.7658    0.0000 C   0  0  0  0  0  0  0  0  0  0  0  0
   -3.6707   -0.4667    0.0000 C   0  0  0  0  0  0  0  0  0  0  0  0
   -4.5840    1.4819    0.0000 H   0  0  0  0  0  0  0  0  0  0  0  0
   -3.1530    2.6004    0.0000 H   0  0  0  0  0  0  0  0  0  0  0  0
   -3.7878    0.3719    0.0000 H   0  0  0  0  0  0  0  0  0  0  0  0
   -1.8587    1.9933    0.0000 H   0  0  0  0  0  0  0  0  0  0  0  0
   -0.1949   -0.2049    0.0000 H   0  0  0  0  0  0  0  0  0  0  0  0
    2.4537    0.4974    0.0000 H   0  0  0  0  0  0  0  0  0  0  0  0
    1.7421    4.5333    0.0000 H   0  0  0  0  0  0  0  0  0  0  0  0
   -0.5007   -2.4570    0.0000 H   0  0  0  0  0  0  0  0  0  0  0  0
   -1.7716   -2.7300    0.0000 H   0  0  0  0  0  0  0  0  0  0  0  0
   -4.0698   -2.7300    0.0000 H   0  0  0  0  0  0  0  0  0  0  0  0
   -5.0802   -0.9798    0.0000 H   0  0  0  0  0  0  0  0  0  0  0  0
   -4.1649    0.6432    0.0000 H   0  0  0  0  0  0  0  0  0  0  0  0
  1  2  1  0
  2  3  1  0
  3  4  1  0
  5  4  1  6
  5  6  1  0
  6  7  1  0
  7  8  1  0
  7  9  1  0
  2 10  1  0
 10 11  1  0
 10 12  1  0
 12 13  1  0
  5  3  1  0
 13 10  1  0
  7  5  1  0
  1 14  1  0
  1 15  1  0
  1 16  1  0
  2 17  1  1
  3 18  1  1
  4 19  1  0
  6 20  1  0
 11 21  1  0
 12 22  1  0
 12 23  1  0
 13 24  1  0
 13 25  1  0
M  END
$$$$
