
     RDKit          2D

 20 23  0  0  0  0  0  0  0  0999 V2000
    1.4552    2.1989    0.0000 C   0  0  0  0  0  0  0  0  0  0  0  0
    0.7052    3.4979    0.0000 C   0  0  0  0  0  0  0  0  0  0  0  0
   -0.0448    2.1989    0.0000 C   0  0  0  0  0  0  0  0  0  0  0  0
   -1.4937    2.5871    0.0000 O   0  0  0  0  0  0  0  0  0  0  0  0
   -1.8819    1.1382    0.0000 C   0  0  0  0  0  0  0  0  0  0  0  0
   -2.6319   -0.1608    0.0000 C   0  0  0  0  0  0  0  0  0  0  0  0
   -3.3819    1.1382    0.0000 C   0  0  0  0  0  0  0  0  0  0  0  0
   -0.4330    0.7500    0.0000 C   0  0  0  0  0  0  0  0  0  0  0  0
    0.8660    0.0000    0.0000 C   0  0  0  0  0  0  0  0  0  0  0  0
   -0.4330   -0.7500    0.0000 O   0  0  0  0  0  0  0  0  0  0  0  0
    2.8648    2.7119    0.0000 H   0  0  0  0  0  0  0  0  0  0  0  0
    1.6883    1.4366    0.0000 H   0  0  0  0  0  0  0  0  0  0  0  0
   -0.4439    4.4621    0.0000 H   0  0  0  0  0  0  0  0  0  0  0  0
    1.8543    4.4621    0.0000 H   0  0  0  0  0  0  0  0  0  0  0  0
   -1.4828   -1.1250    0.0000 H   0  0  0  0  0  0  0  0  0  0  0  0
   -3.7810   -1.1250    0.0000 H   0  0  0  0  0  0  0  0  0  0  0  0
   -4.7914    0.6252    0.0000 H   0  0  0  0  0  0  0  0  0  0  0  0
   -3.6424    2.6154    0.0000 H   0  0  0  0  0  0  0  0  0  0  0  0
    1.4490    0.5436    0.0000 H   0  0  0  0  0  0  0  0  0  0  0  0
    1.8302   -1.1491    0.0000 H   0  0  0  0  0  0  0  0  0  0  0  0
  1  2  1  0
  2  3  1  0
  3  4  1  0
  4  5  1  0
  5  6  1  0
  6  7  1  0
  5  8  1  0
  8  9  1  0
  9 10  1  0
  3  1  1  0
  7  5  1  0
 10  8  1  0
  8  3  1  0
  1 11  1  0
  1 12  1  0
  2 13  1  0
  2 14  1  0
  6 15  1  0
  6 16  1  0
  7 17  1  0
  7 18  1  0
  9 19  1  0
  9 20  1  0
M  END
$$$$
