
     RDKit          2D

 40 41  0  0  0  0  0  0  0  0999 V2000
   -8.3356    0.6986    0.0000 C   0  0  0  0  0  0  0  0  0  0  0  0
   -6.9762    0.0647    0.0000 C   0  0  0  0  0  0  0  0  0  0  0  0
   -5.6167   -0.5693    0.0000 C   0  0  0  0  0  0  0  0  0  0  0  0
   -4.2572   -1.2032    0.0000 C   0  0  0  0  0  0  0  0  0  0  0  0
   -2.8978   -1.8371    0.0000 C   0  0  0  0  0  0  0  0  0  0  0  0
   -3.7581   -3.0658    0.0000 C   0  0  0  0  0  0  0  0  0  0  0  0
   -1.8371   -2.8978    0.0000 C   0  0  0  0  0  0  0  0  0  0  0  0
   -0.3882   -2.5095    0.0000 C   0  0  0  0  0  0  0  0  0  0  0  0
   -0.2575   -4.0038    0.0000 C   0  0  0  0  0  0  0  0  0  0  0  0
   -0.1268   -5.4981    0.0000 P   0  0  0  0  0  0  0  0  0  0  0  0
   -0.0000   -1.0607    0.0000 C   0  0  0  0  0  0  0  0  0  0  0  0
    1.0607    0.0000    0.0000 C   0  0  0  0  0  0  0  0  0  0  0  0
    0.0000    1.0607    0.0000 C   0  0  0  0  0  0  0  0  0  0  0  0
   -1.0607    0.0000    0.0000 C   0  0  0  0  0  0  0  0  0  0  0  0
   -2.5095   -0.3882    0.0000 O   0  0  0  0  0  0  0  0  0  0  0  0
   -9.6951    1.3325    0.0000 H   0  0  0  0  0  0  0  0  0  0  0  0
   -7.7017    2.0581    0.0000 H   0  0  0  0  0  0  0  0  0  0  0  0
   -8.9696   -0.6609    0.0000 H   0  0  0  0  0  0  0  0  0  0  0  0
   -6.3422    1.4241    0.0000 H   0  0  0  0  0  0  0  0  0  0  0  0
   -7.6101   -1.2948    0.0000 H   0  0  0  0  0  0  0  0  0  0  0  0
   -6.2506   -1.9287    0.0000 H   0  0  0  0  0  0  0  0  0  0  0  0
   -4.9828    0.7902    0.0000 H   0  0  0  0  0  0  0  0  0  0  0  0
   -3.6233    0.1563    0.0000 H   0  0  0  0  0  0  0  0  0  0  0  0
   -4.6797   -1.8792    0.0000 H   0  0  0  0  0  0  0  0  0  0  0  0
   -4.6185   -4.2946    0.0000 H   0  0  0  0  0  0  0  0  0  0  0  0
   -4.4620   -2.6916    0.0000 H   0  0  0  0  0  0  0  0  0  0  0  0
   -2.7741   -4.1980    0.0000 H   0  0  0  0  0  0  0  0  0  0  0  0
   -2.9518   -3.9015    0.0000 H   0  0  0  0  0  0  0  0  0  0  0  0
   -1.3736   -4.3244    0.0000 H   0  0  0  0  0  0  0  0  0  0  0  0
    1.0790   -2.8215    0.0000 H   0  0  0  0  0  0  0  0  0  0  0  0
    1.2368   -3.8731    0.0000 H   0  0  0  0  0  0  0  0  0  0  0  0
   -1.6757   -4.4923    0.0000 H   0  0  0  0  0  0  0  0  0  0  0  0
    1.2327   -6.1321    0.0000 H   0  0  0  0  0  0  0  0  0  0  0  0
   -1.3555   -6.3585    0.0000 H   0  0  0  0  0  0  0  0  0  0  0  0
    1.3808   -1.6467    0.0000 H   0  0  0  0  0  0  0  0  0  0  0  0
    2.1213    1.0607    0.0000 H   0  0  0  0  0  0  0  0  0  0  0  0
    2.1213   -1.0607    0.0000 H   0  0  0  0  0  0  0  0  0  0  0  0
   -1.0607    2.1213    0.0000 H   0  0  0  0  0  0  0  0  0  0  0  0
    1.0607    2.1213    0.0000 H   0  0  0  0  0  0  0  0  0  0  0  0
   -1.8107    1.2990    0.0000 H   0  0  0  0  0  0  0  0  0  0  0  0
  1  2  1  0
  2  3  1  0
  3  4  1  0
  5  4  1  6
  5  6  1  0
  5  7  1  0
  7  8  1  0
  8  9  1  0
  9 10  1  0
  8 11  1  0
 11 12  1  0
 12 13  1  0
 13 14  1  0
 14 15  1  0
 15  5  1  0
 14 11  1  0
  1 16  1  0
  1 17  1  0
  1 18  1  0
  2 19  1  0
  2 20  1  0
  3 21  1  0
  3 22  1  0
  4 23  1  0
  4 24  1  0
  6 25  1  0
  6 26  1  0
  6 27  1  0
  7 28  1  0
  7 29  1  0
  8 30  1  6
  9 31  1  0
  9 32  1  0
 10 33  1  0
 10 34  1  0
 11 35  1  6
 12 36  1  0
 12 37  1  0
 13 38  1  0
 13 39  1  0
 14 40  1  6
M  END
$$$$
