
     RDKit          2D

 91 94  0  0  0  0  0  0  0  0999 V2000
    1.5709   -6.6386    0.0000 C   0  0  0  0  0  0  0  0  0  0  0  0
    1.3105   -5.1614    0.0000 C   0  0  0  0  0  0  0  0  0  0  0  0
    2.4595   -4.1972    0.0000 C   0  0  0  0  0  0  0  0  0  0  0  0
    3.6086   -3.2330    0.0000 C   0  0  0  0  0  0  0  0  0  0  0  0
    4.7577   -2.2688    0.0000 C   0  0  0  0  0  0  0  0  0  0  0  0
    5.9067   -1.3047    0.0000 C   0  0  0  0  0  0  0  0  0  0  0  0
    1.4954   -3.0481    0.0000 C   0  0  0  0  0  0  0  0  0  0  0  0
    0.5312   -1.8991    0.0000 C   0  0  0  0  0  0  0  0  0  0  0  0
   -0.4330   -0.7500    0.0000 C   0  0  0  0  0  0  0  0  0  0  0  0
   -1.3972   -1.8991    0.0000 C   0  0  0  0  0  0  0  0  0  0  0  0
   -2.8744   -2.1595    0.0000 C   0  0  0  0  0  0  0  0  0  0  0  0
   -2.2012   -3.5000    0.0000 O   0  0  0  0  0  0  0  0  0  0  0  0
   -3.0255   -4.7532    0.0000 C   0  0  0  0  0  0  0  0  0  0  0  0
   -3.8497   -6.0065    0.0000 C   0  0  0  0  0  0  0  0  0  0  0  0
   -4.1734   -1.4095    0.0000 C   0  0  0  0  0  0  0  0  0  0  0  0
   -4.6865    0.0000    0.0000 C   0  0  0  0  0  0  0  0  0  0  0  0
   -4.1734    1.4095    0.0000 C   0  0  0  0  0  0  0  0  0  0  0  0
   -5.6709    1.4968    0.0000 C   0  0  0  0  0  0  0  0  0  0  0  0
   -6.3441    2.8372    0.0000 C   0  0  0  0  0  0  0  0  0  0  0  0
   -6.4952    0.2435    0.0000 C   0  0  0  0  0  0  0  0  0  0  0  0
   -7.7484    1.0678    0.0000 O   0  0  0  0  0  0  0  0  0  0  0  0
   -7.3194   -1.0097    0.0000 C   0  0  0  0  0  0  0  0  0  0  0  0
   -6.3620   -2.1644    0.0000 Br  0  0  0  0  0  0  0  0  0  0  0  0
   -8.5226   -1.9054    0.0000 C   0  0  0  0  0  0  0  0  0  0  0  0
   -7.8494   -3.2459    0.0000 O   0  0  0  0  0  0  0  0  0  0  0  0
   -8.6968   -0.4156    0.0000 C   0  0  0  0  0  0  0  0  0  0  0  0
  -10.1942   -0.3284    0.0000 C   0  0  0  0  0  0  0  0  0  0  0  0
  -11.5715    0.2657    0.0000 C   0  0  0  0  0  0  0  0  0  0  0  0
  -10.3684    1.1615    0.0000 C   0  0  0  0  0  0  0  0  0  0  0  0
  -11.0416    2.5019    0.0000 C   0  0  0  0  0  0  0  0  0  0  0  0
  -11.7148    3.8424    0.0000 N   0  0  0  0  0  0  0  0  0  0  0  0
  -10.8905    5.0956    0.0000 C   0  0  0  0  0  0  0  0  0  0  0  0
  -10.0662    6.3488    0.0000 C   0  0  0  0  0  0  0  0  0  0  0  0
   -2.8744    2.1595    0.0000 C   0  0  0  0  0  0  0  0  0  0  0  0
   -1.3972    1.8991    0.0000 C   0  0  0  0  0  0  0  0  0  0  0  0
   -0.4330    0.7500    0.0000 C   0  0  0  0  0  0  0  0  0  0  0  0
    0.8660    0.0000    0.0000 C   0  0  0  0  0  0  0  0  0  0  0  0
    0.4219   -7.6028    0.0000 H   0  0  0  0  0  0  0  0  0  0  0  0
    2.9805   -7.1516    0.0000 H   0  0  0  0  0  0  0  0  0  0  0  0
   -0.1511   -4.8240    0.0000 H   0  0  0  0  0  0  0  0  0  0  0  0
    3.4237   -5.3463    0.0000 H   0  0  0  0  0  0  0  0  0  0  0  0
    4.5728   -4.3821    0.0000 H   0  0  0  0  0  0  0  0  0  0  0  0
    3.1262   -2.4902    0.0000 H   0  0  0  0  0  0  0  0  0  0  0  0
    5.7218   -3.4179    0.0000 H   0  0  0  0  0  0  0  0  0  0  0  0
    3.7935   -1.1198    0.0000 H   0  0  0  0  0  0  0  0  0  0  0  0
    7.0558   -0.3405    0.0000 H   0  0  0  0  0  0  0  0  0  0  0  0
    4.9426   -0.1556    0.0000 H   0  0  0  0  0  0  0  0  0  0  0  0
    6.8709   -2.4537    0.0000 H   0  0  0  0  0  0  0  0  0  0  0  0
    2.0994   -2.4003    0.0000 H   0  0  0  0  0  0  0  0  0  0  0  0
    0.2373   -3.8651    0.0000 H   0  0  0  0  0  0  0  0  0  0  0  0
   -0.0125   -2.4821    0.0000 H   0  0  0  0  0  0  0  0  0  0  0  0
    1.7892   -1.0821    0.0000 H   0  0  0  0  0  0  0  0  0  0  0  0
   -0.7092   -2.3017    0.0000 H   0  0  0  0  0  0  0  0  0  0  0  0
   -1.2057   -3.3868    0.0000 H   0  0  0  0  0  0  0  0  0  0  0  0
   -3.9655   -3.1889    0.0000 H   0  0  0  0  0  0  0  0  0  0  0  0
   -4.3698   -4.0879    0.0000 H   0  0  0  0  0  0  0  0  0  0  0  0
   -1.7722   -5.5775    0.0000 H   0  0  0  0  0  0  0  0  0  0  0  0
   -4.6740   -7.2597    0.0000 H   0  0  0  0  0  0  0  0  0  0  0  0
   -2.5965   -6.8307    0.0000 H   0  0  0  0  0  0  0  0  0  0  0  0
   -5.1030   -5.1822    0.0000 H   0  0  0  0  0  0  0  0  0  0  0  0
   -4.6947   -2.8161    0.0000 H   0  0  0  0  0  0  0  0  0  0  0  0
   -5.6053   -1.8565    0.0000 H   0  0  0  0  0  0  0  0  0  0  0  0
   -5.8897   -0.8957    0.0000 H   0  0  0  0  0  0  0  0  0  0  0  0
   -6.0706    0.5780    0.0000 H   0  0  0  0  0  0  0  0  0  0  0  0
   -4.6947    2.8161    0.0000 H   0  0  0  0  0  0  0  0  0  0  0  0
   -7.8416    2.9244    0.0000 H   0  0  0  0  0  0  0  0  0  0  0  0
   -5.5198    4.0904    0.0000 H   0  0  0  0  0  0  0  0  0  0  0  0
   -5.3518   -0.7274    0.0000 H   0  0  0  0  0  0  0  0  0  0  0  0
   -9.0889    0.3946    0.0000 H   0  0  0  0  0  0  0  0  0  0  0  0
   -9.8964   -2.5076    0.0000 H   0  0  0  0  0  0  0  0  0  0  0  0
   -8.6737   -4.4991    0.0000 H   0  0  0  0  0  0  0  0  0  0  0  0
   -8.5313    1.0753    0.0000 H   0  0  0  0  0  0  0  0  0  0  0  0
  -10.7155   -1.7349    0.0000 H   0  0  0  0  0  0  0  0  0  0  0  0
  -12.3958   -0.9875    0.0000 H   0  0  0  0  0  0  0  0  0  0  0  0
  -12.7799    1.1544    0.0000 H   0  0  0  0  0  0  0  0  0  0  0  0
   -8.9945    1.7636    0.0000 H   0  0  0  0  0  0  0  0  0  0  0  0
   -9.7011    3.1751    0.0000 H   0  0  0  0  0  0  0  0  0  0  0  0
  -12.4541    1.9972    0.0000 H   0  0  0  0  0  0  0  0  0  0  0  0
  -13.2122    3.9296    0.0000 H   0  0  0  0  0  0  0  0  0  0  0  0
   -9.6373    4.2714    0.0000 H   0  0  0  0  0  0  0  0  0  0  0  0
  -12.1437    5.9199    0.0000 H   0  0  0  0  0  0  0  0  0  0  0  0
   -9.2420    7.6021    0.0000 H   0  0  0  0  0  0  0  0  0  0  0  0
   -8.8130    5.5246    0.0000 H   0  0  0  0  0  0  0  0  0  0  0  0
  -11.3195    7.1731    0.0000 H   0  0  0  0  0  0  0  0  0  0  0  0
   -3.8319    3.3142    0.0000 H   0  0  0  0  0  0  0  0  0  0  0  0
   -2.3696    3.5721    0.0000 H   0  0  0  0  0  0  0  0  0  0  0  0
   -1.3884    3.3990    0.0000 H   0  0  0  0  0  0  0  0  0  0  0  0
   -0.1026    2.6566    0.0000 H   0  0  0  0  0  0  0  0  0  0  0  0
    0.6640    1.7730    0.0000 H   0  0  0  0  0  0  0  0  0  0  0  0
    1.8302    1.1491    0.0000 H   0  0  0  0  0  0  0  0  0  0  0  0
    1.9631   -1.0230    0.0000 H   0  0  0  0  0  0  0  0  0  0  0  0
  1  2  2  3
  2  3  1  0
  3  4  1  0
  4  5  1  0
  5  6  1  0
  3  7  1  0
  7  8  1  0
  8  9  1  0
  9 10  1  0
 10 11  1  0
 11 12  1  0
 12 13  1  0
 13 14  1  0
 11 15  1  0
 15 16  1  0
 16 17  1  0
 17 18  1  0
 18 19  2  3
 18 20  1  0
 20 21  1  0
 20 22  1  0
 22 23  1  0
 22 24  1  0
 24 25  1  0
 24 26  1  0
 26 27  1  0
 27 28  1  0
 28 29  1  0
 29 30  1  0
 30 31  1  0
 31 32  1  0
 32 33  1  0
 17 34  1  0
 34 35  1  0
 35 36  1  0
 36 37  1  0
 36  9  1  0
 37  9  1  0
 26 22  1  0
 29 27  1  0
  1 38  1  0
  1 39  1  0
  2 40  1  0
  3 41  1  0
  4 42  1  0
  4 43  1  0
  5 44  1  0
  5 45  1  0
  6 46  1  0
  6 47  1  0
  6 48  1  0
  7 49  1  0
  7 50  1  0
  8 51  1  0
  8 52  1  0
 10 53  1  0
 10 54  1  0
 11 55  1  0
 13 56  1  0
 13 57  1  0
 14 58  1  0
 14 59  1  0
 14 60  1  0
 15 61  1  0
 15 62  1  0
 16 63  1  0
 16 64  1  0
 17 65  1  0
 19 66  1  0
 19 67  1  0
 20 68  1  0
 21 69  1  0
 24 70  1  0
 25 71  1  0
 26 72  1  0
 27 73  1  0
 28 74  1  0
 28 75  1  0
 29 76  1  0
 30 77  1  0
 30 78  1  0
 31 79  1  0
 32 80  1  0
 32 81  1  0
 33 82  1  0
 33 83  1  0
 33 84  1  0
 34 85  1  0
 34 86  1  0
 35 87  1  0
 35 88  1  0
 36 89  1  0
 37 90  1  0
 37 91  1  0
M  END
$$$$
