
     RDKit          2D

 29 31  0  0  0  0  0  0  0  0999 V2000
   -3.7190    0.0000    0.0000 C   0  0  0  0  0  0  0  0  0  0  0  0
   -3.0682    1.3515    0.0000 C   0  0  0  0  0  0  0  0  0  0  0  0
   -1.6058    1.6852    0.0000 C   0  0  0  0  0  0  0  0  0  0  0  0
   -0.4330    0.7500    0.0000 C   0  0  0  0  0  0  0  0  0  0  0  0
    0.8660    0.0000    0.0000 C   0  0  0  0  0  0  0  0  0  0  0  0
   -0.4330   -0.7500    0.0000 C   0  0  0  0  0  0  0  0  0  0  0  0
    0.8188   -1.5763    0.0000 C   0  0  0  0  0  0  0  0  0  0  0  0
    0.4198   -3.0223    0.0000 C   0  0  0  0  0  0  0  0  0  0  0  0
   -1.0787   -3.0896    0.0000 C   0  0  0  0  0  0  0  0  0  0  0  0
   -1.6058   -1.6852    0.0000 C   0  0  0  0  0  0  0  0  0  0  0  0
   -3.0682   -1.3515    0.0000 C   0  0  0  0  0  0  0  0  0  0  0  0
   -4.9970    0.7853    0.0000 H   0  0  0  0  0  0  0  0  0  0  0  0
   -4.9970   -0.7853    0.0000 H   0  0  0  0  0  0  0  0  0  0  0  0
   -3.2510    2.8403    0.0000 H   0  0  0  0  0  0  0  0  0  0  0  0
   -4.4790    1.8610    0.0000 H   0  0  0  0  0  0  0  0  0  0  0  0
   -0.4330    2.6205    0.0000 H   0  0  0  0  0  0  0  0  0  0  0  0
   -2.0870    3.1059    0.0000 H   0  0  0  0  0  0  0  0  0  0  0  0
    0.4120    1.9894    0.0000 H   0  0  0  0  0  0  0  0  0  0  0  0
    1.8302    1.1491    0.0000 H   0  0  0  0  0  0  0  0  0  0  0  0
    1.3784   -0.6107    0.0000 H   0  0  0  0  0  0  0  0  0  0  0  0
    1.3463   -0.9787    0.0000 H   0  0  0  0  0  0  0  0  0  0  0  0
    2.2152   -2.1244    0.0000 H   0  0  0  0  0  0  0  0  0  0  0  0
    1.8995   -3.2680    0.0000 H   0  0  0  0  0  0  0  0  0  0  0  0
    0.3301   -4.5196    0.0000 H   0  0  0  0  0  0  0  0  0  0  0  0
   -0.8551   -4.5728    0.0000 H   0  0  0  0  0  0  0  0  0  0  0  0
   -2.3960   -3.8070    0.0000 H   0  0  0  0  0  0  0  0  0  0  0  0
   -2.5927   -2.8148    0.0000 H   0  0  0  0  0  0  0  0  0  0  0  0
   -4.4790   -1.8610    0.0000 H   0  0  0  0  0  0  0  0  0  0  0  0
   -3.4311   -2.8069    0.0000 H   0  0  0  0  0  0  0  0  0  0  0  0
  1  2  1  0
  2  3  1  0
  3  4  1  0
  4  5  1  0
  5  6  1  0
  6  7  1  0
  7  8  1  0
  8  9  1  0
  9 10  1  0
 10 11  1  0
 11  1  1  0
  6  4  1  0
 10  6  1  0
  1 12  1  0
  1 13  1  0
  2 14  1  0
  2 15  1  0
  3 16  1  0
  3 17  1  0
  4 18  1  0
  5 19  1  0
  5 20  1  0
  7 21  1  0
  7 22  1  0
  8 23  1  0
  8 24  1  0
  9 25  1  0
  9 26  1  0
 10 27  1  0
 11 28  1  0
 11 29  1  0
M  END
$$$$
