
     RDKit          2D

 48 48  0  0  0  0  0  0  0  0999 V2000
    1.6097   -4.6471    0.0000 C   0  0  0  0  0  0  0  0  0  0  0  0
    2.3597   -3.3481    0.0000 C   0  0  0  0  0  0  0  0  0  0  0  0
    3.1097   -2.0490    0.0000 C   0  0  0  0  0  0  0  0  0  0  0  0
    3.8597   -0.7500    0.0000 C   0  0  0  0  0  0  0  0  0  0  0  0
    4.6097    0.5490    0.0000 C   0  0  0  0  0  0  0  0  0  0  0  0
    5.3597    1.8481    0.0000 C   0  0  0  0  0  0  0  0  0  0  0  0
    3.3107    1.2990    0.0000 C   0  0  0  0  0  0  0  0  0  0  0  0
    2.5607    0.0000    0.0000 N   0  0  0  0  0  0  0  0  0  0  0  0
    1.0607    0.0000    0.0000 N   0  0  0  0  0  0  0  0  0  0  0  0
    0.0000   -1.0607    0.0000 C   0  0  0  0  0  0  0  0  0  0  0  0
   -1.0607    0.0000    0.0000 N   0  0  0  0  0  0  0  0  0  0  0  0
    0.0000    1.0607    0.0000 O   0  0  0  0  0  0  0  0  0  0  0  0
    2.0116    2.0490    0.0000 C   0  0  0  0  0  0  0  0  0  0  0  0
    0.7126    1.2990    0.0000 N   0  0  0  0  0  0  0  0  0  0  0  0
    2.0116    3.5490    0.0000 N   0  0  0  0  0  0  0  0  0  0  0  0
    0.7126    4.2990    0.0000 C   0  0  0  0  0  0  0  0  0  0  0  0
   -0.5865    5.0490    0.0000 C   0  0  0  0  0  0  0  0  0  0  0  0
   -1.8855    5.7990    0.0000 C   0  0  0  0  0  0  0  0  0  0  0  0
   -1.3365    3.7500    0.0000 C   0  0  0  0  0  0  0  0  0  0  0  0
    0.8597   -5.9462    0.0000 H   0  0  0  0  0  0  0  0  0  0  0  0
    2.9087   -5.3971    0.0000 H   0  0  0  0  0  0  0  0  0  0  0  0
    0.3107   -3.8971    0.0000 H   0  0  0  0  0  0  0  0  0  0  0  0
    0.9789   -2.7620    0.0000 H   0  0  0  0  0  0  0  0  0  0  0  0
    3.6587   -4.0981    0.0000 H   0  0  0  0  0  0  0  0  0  0  0  0
    1.8107   -1.2990    0.0000 H   0  0  0  0  0  0  0  0  0  0  0  0
    4.4087   -2.7990    0.0000 H   0  0  0  0  0  0  0  0  0  0  0  0
    2.4178   -0.3366    0.0000 H   0  0  0  0  0  0  0  0  0  0  0  0
    5.1587   -1.5000    0.0000 H   0  0  0  0  0  0  0  0  0  0  0  0
    5.9087   -0.2010    0.0000 H   0  0  0  0  0  0  0  0  0  0  0  0
    6.1097    3.1471    0.0000 H   0  0  0  0  0  0  0  0  0  0  0  0
    6.6587    1.0981    0.0000 H   0  0  0  0  0  0  0  0  0  0  0  0
    4.1618    2.7508    0.0000 H   0  0  0  0  0  0  0  0  0  0  0  0
    3.8967    2.6798    0.0000 H   0  0  0  0  0  0  0  0  0  0  0  0
    2.6128   -1.4991    0.0000 H   0  0  0  0  0  0  0  0  0  0  0  0
    0.9235   -2.2427    0.0000 H   0  0  0  0  0  0  0  0  0  0  0  0
   -1.0607   -2.1213    0.0000 H   0  0  0  0  0  0  0  0  0  0  0  0
   -2.5607    0.0000    0.0000 H   0  0  0  0  0  0  0  0  0  0  0  0
   -0.5865    2.0490    0.0000 H   0  0  0  0  0  0  0  0  0  0  0  0
    3.3107    4.2990    0.0000 H   0  0  0  0  0  0  0  0  0  0  0  0
    0.1265    2.9183    0.0000 H   0  0  0  0  0  0  0  0  0  0  0  0
    1.4626    5.5981    0.0000 H   0  0  0  0  0  0  0  0  0  0  0  0
    0.1635    6.3481    0.0000 H   0  0  0  0  0  0  0  0  0  0  0  0
   -3.1845    6.5490    0.0000 H   0  0  0  0  0  0  0  0  0  0  0  0
   -1.1355    7.0981    0.0000 H   0  0  0  0  0  0  0  0  0  0  0  0
   -2.7882    4.6011    0.0000 H   0  0  0  0  0  0  0  0  0  0  0  0
   -2.0865    2.4510    0.0000 H   0  0  0  0  0  0  0  0  0  0  0  0
   -2.7172    4.3361    0.0000 H   0  0  0  0  0  0  0  0  0  0  0  0
   -0.1385    2.8472    0.0000 H   0  0  0  0  0  0  0  0  0  0  0  0
  1  2  1  0
  2  3  1  0
  3  4  1  0
  4  5  1  0
  5  6  1  0
  5  7  1  0
  7  8  1  0
  8  9  1  0
  9 10  1  0
 10 11  1  0
 11 12  1  0
  7 13  1  0
 13 14  2  3
 13 15  1  0
 15 16  1  0
 16 17  1  0
 17 18  1  0
 17 19  1  0
 12  9  1  0
  1 20  1  0
  1 21  1  0
  1 22  1  0
  2 23  1  0
  2 24  1  0
  3 25  1  0
  3 26  1  0
  4 27  1  0
  4 28  1  0
  5 29  1  0
  6 30  1  0
  6 31  1  0
  6 32  1  0
  7 33  1  0
  8 34  1  0
 10 35  1  0
 10 36  1  0
 11 37  1  0
 14 38  1  0
 15 39  1  0
 16 40  1  0
 16 41  1  0
 17 42  1  0
 18 43  1  0
 18 44  1  0
 18 45  1  0
 19 46  1  0
 19 47  1  0
 19 48  1  0
M  END
$$$$
