
     RDKit          2D

113121  0  0  0  0  0  0  0  0999 V2000
   10.2423   -2.8467    0.0000 C   0  0  0  0  0  0  0  0  0  0  0  0
    9.7293   -4.2562    0.0000 C   0  0  0  0  0  0  0  0  0  0  0  0
   10.6935   -5.4053    0.0000 C   0  0  0  0  0  0  0  0  0  0  0  0
   11.6577   -6.5544    0.0000 C   0  0  0  0  0  0  0  0  0  0  0  0
   12.6218   -7.7034    0.0000 C   0  0  0  0  0  0  0  0  0  0  0  0
   13.5860   -8.8525    0.0000 C   0  0  0  0  0  0  0  0  0  0  0  0
   14.5502  -10.0016    0.0000 C   0  0  0  0  0  0  0  0  0  0  0  0
   15.5144  -11.1506    0.0000 C   0  0  0  0  0  0  0  0  0  0  0  0
   15.6993   -9.0374    0.0000 C   0  0  0  0  0  0  0  0  0  0  0  0
   16.8483   -8.0732    0.0000 C   0  0  0  0  0  0  0  0  0  0  0  0
   17.9974   -7.1090    0.0000 C   0  0  0  0  0  0  0  0  0  0  0  0
    8.2521   -4.5167    0.0000 C   0  0  0  0  0  0  0  0  0  0  0  0
    6.7749   -4.7772    0.0000 C   0  0  0  0  0  0  0  0  0  0  0  0
    5.2977   -5.0377    0.0000 C   0  0  0  0  0  0  0  0  0  0  0  0
    3.8204   -5.2981    0.0000 C   0  0  0  0  0  0  0  0  0  0  0  0
    2.3432   -5.5586    0.0000 C   0  0  0  0  0  0  0  0  0  0  0  0
    0.8660   -5.2981    0.0000 C   0  0  0  0  0  0  0  0  0  0  0  0
    1.8302   -4.1491    0.0000 C   0  0  0  0  0  0  0  0  0  0  0  0
    0.8660   -3.0000    0.0000 C   0  0  0  0  0  0  0  0  0  0  0  0
    2.1651   -2.2500    0.0000 C   0  0  0  0  0  0  0  0  0  0  0  0
    2.1651   -0.7500    0.0000 C   0  0  0  0  0  0  0  0  0  0  0  0
    0.8660    0.0000    0.0000 C   0  0  0  0  0  0  0  0  0  0  0  0
   -0.4330    0.7500    0.0000 C   0  0  0  0  0  0  0  0  0  0  0  0
   -1.3703    1.2479    0.0000 C   0  0  0  0  0  0  0  0  0  0  0  0
   -1.3703    2.7479    0.0000 C   0  0  0  0  0  0  0  0  0  0  0  0
   -2.6693    1.9979    0.0000 C   0  0  0  0  0  0  0  0  0  0  0  0
   -4.1182    1.6097    0.0000 C   0  0  0  0  0  0  0  0  0  0  0  0
   -5.5671    1.9979    0.0000 C   0  0  0  0  0  0  0  0  0  0  0  0
   -7.0160    2.3862    0.0000 C   0  0  0  0  0  0  0  0  0  0  0  0
   -4.8682    0.3107    0.0000 C   0  0  0  0  0  0  0  0  0  0  0  0
   -6.1672   -0.4393    0.0000 C   0  0  0  0  0  0  0  0  0  0  0  0
   -7.4663   -1.1893    0.0000 C   0  0  0  0  0  0  0  0  0  0  0  0
   -8.2163    0.1097    0.0000 C   0  0  0  0  0  0  0  0  0  0  0  0
   -9.5153   -0.6403    0.0000 C   0  0  0  0  0  0  0  0  0  0  0  0
   -8.7653   -1.9393    0.0000 C   0  0  0  0  0  0  0  0  0  0  0  0
   -4.4800   -1.1382    0.0000 C   0  0  0  0  0  0  0  0  0  0  0  0
   -4.8682   -2.5871    0.0000 O   0  0  0  0  0  0  0  0  0  0  0  0
   -3.1809   -1.8882    0.0000 C   0  0  0  0  0  0  0  0  0  0  0  0
   -1.7321   -1.5000    0.0000 C   0  0  0  0  0  0  0  0  0  0  0  0
   -0.4330   -2.2500    0.0000 C   0  0  0  0  0  0  0  0  0  0  0  0
   -0.4330   -0.7500    0.0000 C   0  0  0  0  0  0  0  0  0  0  0  0
    4.0809   -6.7753    0.0000 C   0  0  0  0  0  0  0  0  0  0  0  0
    2.6714   -7.2884    0.0000 C   0  0  0  0  0  0  0  0  0  0  0  0
    4.8309   -8.0744    0.0000 C   0  0  0  0  0  0  0  0  0  0  0  0
    5.5809   -6.7753    0.0000 S   0  0  0  0  0  0  0  0  0  0  0  0
   11.7195   -2.5862    0.0000 H   0  0  0  0  0  0  0  0  0  0  0  0
    9.2781   -1.6976    0.0000 H   0  0  0  0  0  0  0  0  0  0  0  0
   11.8425   -4.4411    0.0000 H   0  0  0  0  0  0  0  0  0  0  0  0
    9.5444   -6.3695    0.0000 H   0  0  0  0  0  0  0  0  0  0  0  0
   10.5086   -7.5186    0.0000 H   0  0  0  0  0  0  0  0  0  0  0  0
   12.8067   -5.5902    0.0000 H   0  0  0  0  0  0  0  0  0  0  0  0
   13.7709   -6.7393    0.0000 H   0  0  0  0  0  0  0  0  0  0  0  0
   11.4728   -8.6676    0.0000 H   0  0  0  0  0  0  0  0  0  0  0  0
   12.4370   -9.8167    0.0000 H   0  0  0  0  0  0  0  0  0  0  0  0
   14.1901   -8.2047    0.0000 H   0  0  0  0  0  0  0  0  0  0  0  0
   13.4011  -10.9658    0.0000 H   0  0  0  0  0  0  0  0  0  0  0  0
   16.4786  -12.2997    0.0000 H   0  0  0  0  0  0  0  0  0  0  0  0
   16.2572  -10.6683    0.0000 H   0  0  0  0  0  0  0  0  0  0  0  0
   14.3653  -12.1148    0.0000 H   0  0  0  0  0  0  0  0  0  0  0  0
   16.3471   -9.6414    0.0000 H   0  0  0  0  0  0  0  0  0  0  0  0
   15.2169   -8.2945    0.0000 H   0  0  0  0  0  0  0  0  0  0  0  0
   17.8125   -9.2223    0.0000 H   0  0  0  0  0  0  0  0  0  0  0  0
   15.8842   -6.9241    0.0000 H   0  0  0  0  0  0  0  0  0  0  0  0
   19.1465   -6.1449    0.0000 H   0  0  0  0  0  0  0  0  0  0  0  0
   17.0332   -5.9600    0.0000 H   0  0  0  0  0  0  0  0  0  0  0  0
   18.9616   -8.2581    0.0000 H   0  0  0  0  0  0  0  0  0  0  0  0
    7.9916   -3.0395    0.0000 H   0  0  0  0  0  0  0  0  0  0  0  0
    8.5126   -5.9939    0.0000 H   0  0  0  0  0  0  0  0  0  0  0  0
    7.0353   -6.2544    0.0000 H   0  0  0  0  0  0  0  0  0  0  0  0
    6.5144   -3.3000    0.0000 H   0  0  0  0  0  0  0  0  0  0  0  0
    5.6580   -5.8468    0.0000 H   0  0  0  0  0  0  0  0  0  0  0  0
    5.0372   -3.5604    0.0000 H   0  0  0  0  0  0  0  0  0  0  0  0
    3.5600   -3.8209    0.0000 H   0  0  0  0  0  0  0  0  0  0  0  0
    1.9803   -7.0140    0.0000 H   0  0  0  0  0  0  0  0  0  0  0  0
    0.3530   -6.7077    0.0000 H   0  0  0  0  0  0  0  0  0  0  0  0
   -0.5147   -4.7121    0.0000 H   0  0  0  0  0  0  0  0  0  0  0  0
    3.1292   -3.3991    0.0000 H   0  0  0  0  0  0  0  0  0  0  0  0
   -0.2310   -4.0230    0.0000 H   0  0  0  0  0  0  0  0  0  0  0  0
    3.6423   -1.9895    0.0000 H   0  0  0  0  0  0  0  0  0  0  0  0
    2.6781   -3.6595    0.0000 H   0  0  0  0  0  0  0  0  0  0  0  0
    2.6781    0.6595    0.0000 H   0  0  0  0  0  0  0  0  0  0  0  0
    3.6423   -1.0105    0.0000 H   0  0  0  0  0  0  0  0  0  0  0  0
    0.4526   -1.4419    0.0000 H   0  0  0  0  0  0  0  0  0  0  0  0
    0.1169    1.4437    0.0000 H   0  0  0  0  0  0  0  0  0  0  0  0
    0.1069    3.0084    0.0000 H   0  0  0  0  0  0  0  0  0  0  0  0
   -1.8833    4.1575    0.0000 H   0  0  0  0  0  0  0  0  0  0  0  0
   -3.2433    3.3837    0.0000 H   0  0  0  0  0  0  0  0  0  0  0  0
   -4.1182    3.1097    0.0000 H   0  0  0  0  0  0  0  0  0  0  0  0
   -5.1789    3.4468    0.0000 H   0  0  0  0  0  0  0  0  0  0  0  0
   -6.1290    0.6072    0.0000 H   0  0  0  0  0  0  0  0  0  0  0  0
   -8.4649    2.7744    0.0000 H   0  0  0  0  0  0  0  0  0  0  0  0
   -6.6278    3.8350    0.0000 H   0  0  0  0  0  0  0  0  0  0  0  0
   -7.5779    0.9954    0.0000 H   0  0  0  0  0  0  0  0  0  0  0  0
   -6.2386    0.9207    0.0000 H   0  0  0  0  0  0  0  0  0  0  0  0
   -7.0700    0.7586    0.0000 H   0  0  0  0  0  0  0  0  0  0  0  0
   -5.5812   -1.8201    0.0000 H   0  0  0  0  0  0  0  0  0  0  0  0
   -6.8802   -2.5701    0.0000 H   0  0  0  0  0  0  0  0  0  0  0  0
   -8.9663    1.4087    0.0000 H   0  0  0  0  0  0  0  0  0  0  0  0
   -9.2952   -0.9323    0.0000 H   0  0  0  0  0  0  0  0  0  0  0  0
  -10.8144   -1.3903    0.0000 H   0  0  0  0  0  0  0  0  0  0  0  0
  -10.2653    0.6587    0.0000 H   0  0  0  0  0  0  0  0  0  0  0  0
   -8.0153   -3.2384    0.0000 H   0  0  0  0  0  0  0  0  0  0  0  0
  -10.0644   -2.6893    0.0000 H   0  0  0  0  0  0  0  0  0  0  0  0
   -5.8803   -1.6759    0.0000 H   0  0  0  0  0  0  0  0  0  0  0  0
   -6.2590   -3.1491    0.0000 H   0  0  0  0  0  0  0  0  0  0  0  0
   -2.4309   -3.1873    0.0000 H   0  0  0  0  0  0  0  0  0  0  0  0
   -3.9534   -3.1740    0.0000 H   0  0  0  0  0  0  0  0  0  0  0  0
   -1.1830   -3.5490    0.0000 H   0  0  0  0  0  0  0  0  0  0  0  0
    1.2618   -7.8014    0.0000 H   0  0  0  0  0  0  0  0  0  0  0  0
    1.8325   -6.0449    0.0000 H   0  0  0  0  0  0  0  0  0  0  0  0
    3.0088   -8.7499    0.0000 H   0  0  0  0  0  0  0  0  0  0  0  0
    3.8080   -9.1714    0.0000 H   0  0  0  0  0  0  0  0  0  0  0  0
    5.9800   -9.0386    0.0000 H   0  0  0  0  0  0  0  0  0  0  0  0
  1  2  2  3
  2  3  1  0
  3  4  1  0
  4  5  1  0
  5  6  1  0
  6  7  1  0
  7  8  1  0
  7  9  1  0
  9 10  1  0
 10 11  1  0
  2 12  1  0
 12 13  1  0
 13 14  1  0
 14 15  1  0
 15 16  1  0
 16 17  1  0
 17 18  1  0
 18 19  1  0
 19 20  1  0
 20 21  1  0
 21 22  1  0
 22 23  1  0
 23 24  1  0
 24 25  1  0
 25 26  1  0
 26 27  1  0
 27 28  1  0
 28 29  1  0
 27 30  1  0
 30 31  1  0
 31 32  1  0
 32 33  1  0
 33 34  1  0
 34 35  1  0
 30 36  1  0
 36 37  1  0
 36 38  1  0
 38 39  1  0
 39 40  1  0
 40 41  1  0
 15 42  1  0
 42 43  1  0
 42 44  1  0
 44 45  1  0
 18 16  1  0
 40 19  1  0
 45 42  1  0
 41 22  1  0
 39 23  1  0
 41 23  1  0
 26 24  1  0
 35 32  1  0
 41 39  1  0
  1 46  1  0
  1 47  1  0
  3 48  1  0
  3 49  1  0
  4 50  1  0
  4 51  1  0
  5 52  1  0
  5 53  1  0
  6 54  1  0
  6 55  1  0
  7 56  1  0
  8 57  1  0
  8 58  1  0
  8 59  1  0
  9 60  1  0
  9 61  1  0
 10 62  1  0
 10 63  1  0
 11 64  1  0
 11 65  1  0
 11 66  1  0
 12 67  1  0
 12 68  1  0
 13 69  1  0
 13 70  1  0
 14 71  1  0
 14 72  1  0
 15 73  1  0
 16 74  1  0
 17 75  1  0
 17 76  1  0
 18 77  1  0
 19 78  1  0
 20 79  1  0
 20 80  1  0
 21 81  1  0
 21 82  1  0
 22 83  1  0
 24 84  1  0
 25 85  1  0
 25 86  1  0
 26 87  1  0
 27 88  1  0
 28 89  1  0
 28 90  1  0
 29 91  1  0
 29 92  1  0
 29 93  1  0
 30 94  1  0
 31 95  1  0
 31 96  1  0
 32 97  1  0
 33 98  1  0
 33 99  1  0
 34100  1  0
 34101  1  0
 35102  1  0
 35103  1  0
 36104  1  0
 37105  1  0
 38106  1  0
 38107  1  0
 40108  1  0
 43109  1  0
 43110  1  0
 43111  1  0
 44112  1  0
 44113  1  0
M  END
$$$$
