
     RDKit          2D

 94105  0  0  0  0  0  0  0  0999 V2000
   -3.2286    5.7723    0.0000 C   0  0  0  0  0  0  0  0  0  0  0  0
   -4.1417    4.5823    0.0000 C   0  0  0  0  0  0  0  0  0  0  0  0
   -3.5677    3.1965    0.0000 C   0  0  0  0  0  0  0  0  0  0  0  0
   -2.9937    1.8107    0.0000 C   0  0  0  0  0  0  0  0  0  0  0  0
   -1.4937    1.8107    0.0000 C   0  0  0  0  0  0  0  0  0  0  0  0
   -0.4330    0.7500    0.0000 C   0  0  0  0  0  0  0  0  0  0  0  0
    0.8660    0.0000    0.0000 C   0  0  0  0  0  0  0  0  0  0  0  0
   -0.4330   -0.7500    0.0000 S   0  0  0  0  0  4  0  0  0  0  0  0
   -0.7173   -2.2228    0.0000 C   0  0  0  0  0  0  0  0  0  0  0  0
   -3.1616   -3.3012    0.0000 C   0  0  0  0  0  0  0  0  0  0  0  0
   -4.4317   -4.0993    0.0000 O   0  0  0  0  0  0  0  0  0  0  0  0
   -5.8475   -3.6039    0.0000 S   0  0  0  0  0  4  0  0  0  0  0  0
   -6.2358   -5.0527    0.0000 C   0  0  0  0  0  0  0  0  0  0  0  0
   -7.2964   -3.9921    0.0000 C   0  0  0  0  0  0  0  0  0  0  0  0
   -7.9303   -2.6326    0.0000 C   0  0  0  0  0  0  0  0  0  0  0  0
   -8.5643   -1.2732    0.0000 C   0  0  0  0  0  0  0  0  0  0  0  0
   -6.3429   -2.1880    0.0000 O   0  0  0  0  0  0  0  0  0  0  0  0
   -5.5449   -0.9179    0.0000 C   0  0  0  0  0  0  0  0  0  0  0  0
   -6.8711   -0.2170    0.0000 C   0  0  0  0  0  0  0  0  0  0  0  0
   -4.9451    0.4569    0.0000 C   0  0  0  0  0  0  0  0  0  0  0  0
   -1.4937   -1.8107    0.0000 B   0  0  0  0  0  0  0  0  0  0  0  0
   -2.9937   -1.8107    0.0000 C   0  0  0  0  0  0  0  0  0  0  0  0
   -4.0543   -0.7500    0.0000 C   0  0  0  0  0  0  0  0  0  0  0  0
   -4.0543    0.7500    0.0000 C   0  0  0  0  0  0  0  0  0  0  0  0
   -4.8043    2.0490    0.0000 C   0  0  0  0  0  0  0  0  0  0  0  0
   -5.5543    3.3481    0.0000 C   0  0  0  0  0  0  0  0  0  0  0  0
   -6.0179    4.7747    0.0000 C   0  0  0  0  0  0  0  0  0  0  0  0
   -6.1747    6.2664    0.0000 O   0  0  0  0  0  0  0  0  0  0  0  0
   -7.5179    4.7747    0.0000 C   0  0  0  0  0  0  0  0  0  0  0  0
   -8.9851    4.4628    0.0000 C   0  0  0  0  0  0  0  0  0  0  0  0
   -9.5952    3.0925    0.0000 C   0  0  0  0  0  0  0  0  0  0  0  0
  -11.0624    2.7806    0.0000 O   0  0  0  0  0  0  0  0  0  0  0  0
  -11.5259    1.3540    0.0000 C   0  0  0  0  0  0  0  0  0  0  0  0
  -12.9525    1.8175    0.0000 N   0  0  0  0  0  2  0  0  0  0  0  0
  -13.4160    0.3910    0.0000 C   0  0  0  0  0  0  0  0  0  0  0  0
  -14.2330   -0.8670    0.0000 N   0  0  0  0  0  2  0  0  0  0  0  0
  -14.9140    0.4695    0.0000 C   0  0  0  0  0  0  0  0  0  0  0  0
  -15.0968    1.9583    0.0000 C   0  0  0  0  0  0  0  0  0  0  0  0
  -15.2796    3.4471    0.0000 C   0  0  0  0  0  0  0  0  0  0  0  0
  -15.4624    4.9359    0.0000 C   0  0  0  0  0  0  0  0  0  0  0  0
  -11.9895   -0.0726    0.0000 C   0  0  0  0  0  0  0  0  0  0  0  0
  -12.4530   -1.4991    0.0000 C   0  0  0  0  0  0  0  0  0  0  0  0
   -8.4805    2.0888    0.0000 C   0  0  0  0  0  0  0  0  0  0  0  0
   -6.7679    2.4664    0.0000 C   0  0  0  0  0  0  0  0  0  0  0  0
   -7.9814    3.3481    0.0000 C   0  0  0  0  0  0  0  0  0  0  0  0
   -3.8026    7.1581    0.0000 H   0  0  0  0  0  0  0  0  0  0  0  0
   -1.7414    5.5765    0.0000 H   0  0  0  0  0  0  0  0  0  0  0  0
   -5.1591    4.9831    0.0000 H   0  0  0  0  0  0  0  0  0  0  0  0
   -4.6608    3.1679    0.0000 H   0  0  0  0  0  0  0  0  0  0  0  0
   -2.1819    3.7705    0.0000 H   0  0  0  0  0  0  0  0  0  0  0  0
   -0.9196    3.1965    0.0000 H   0  0  0  0  0  0  0  0  0  0  0  0
    0.4801    1.9400    0.0000 H   0  0  0  0  0  0  0  0  0  0  0  0
    1.8302    1.1491    0.0000 H   0  0  0  0  0  0  0  0  0  0  0  0
    1.8302   -1.1491    0.0000 H   0  0  0  0  0  0  0  0  0  0  0  0
    0.7772   -2.3516    0.0000 H   0  0  0  0  0  0  0  0  0  0  0  0
   -0.6891   -3.7226    0.0000 H   0  0  0  0  0  0  0  0  0  0  0  0
   -1.8915   -4.0993    0.0000 H   0  0  0  0  0  0  0  0  0  0  0  0
   -4.8763   -5.6867    0.0000 H   0  0  0  0  0  0  0  0  0  0  0  0
   -7.0961   -6.2815    0.0000 H   0  0  0  0  0  0  0  0  0  0  0  0
   -8.5251   -4.8525    0.0000 H   0  0  0  0  0  0  0  0  0  0  0  0
   -9.2898   -3.2666    0.0000 H   0  0  0  0  0  0  0  0  0  0  0  0
   -7.3109   -2.1309    0.0000 H   0  0  0  0  0  0  0  0  0  0  0  0
   -9.9237   -1.9071    0.0000 H   0  0  0  0  0  0  0  0  0  0  0  0
   -7.3986   -0.3291    0.0000 H   0  0  0  0  0  0  0  0  0  0  0  0
   -9.3592   -0.0011    0.0000 H   0  0  0  0  0  0  0  0  0  0  0  0
   -7.5720   -1.5432    0.0000 H   0  0  0  0  0  0  0  0  0  0  0  0
   -6.1702    1.1091    0.0000 H   0  0  0  0  0  0  0  0  0  0  0  0
   -8.2728    0.3170    0.0000 H   0  0  0  0  0  0  0  0  0  0  0  0
   -5.6361    1.7882    0.0000 H   0  0  0  0  0  0  0  0  0  0  0  0
   -1.9942   -2.9291    0.0000 H   0  0  0  0  0  0  0  0  0  0  0  0
   -5.5541    0.7239    0.0000 H   0  0  0  0  0  0  0  0  0  0  0  0
   -6.1034    1.2990    0.0000 H   0  0  0  0  0  0  0  0  0  0  0  0
   -3.7254    3.0911    0.0000 H   0  0  0  0  0  0  0  0  0  0  0  0
   -4.3724    4.2716    0.0000 H   0  0  0  0  0  0  0  0  0  0  0  0
   -4.6697    5.4323    0.0000 H   0  0  0  0  0  0  0  0  0  0  0  0
   -4.9611    7.1481    0.0000 H   0  0  0  0  0  0  0  0  0  0  0  0
   -7.6747    6.2664    0.0000 H   0  0  0  0  0  0  0  0  0  0  0  0
  -10.4117    4.9263    0.0000 H   0  0  0  0  0  0  0  0  0  0  0  0
  -10.0993    0.8905    0.0000 H   0  0  0  0  0  0  0  0  0  0  0  0
  -16.3484    0.0309    0.0000 H   0  0  0  0  0  0  0  0  0  0  0  0
  -16.5856    1.7755    0.0000 H   0  0  0  0  0  0  0  0  0  0  0  0
  -13.6964    2.4959    0.0000 H   0  0  0  0  0  0  0  0  0  0  0  0
  -13.7908    3.6299    0.0000 H   0  0  0  0  0  0  0  0  0  0  0  0
  -16.7684    3.2643    0.0000 H   0  0  0  0  0  0  0  0  0  0  0  0
  -16.9512    4.7531    0.0000 H   0  0  0  0  0  0  0  0  0  0  0  0
  -13.9736    5.1187    0.0000 H   0  0  0  0  0  0  0  0  0  0  0  0
  -15.6452    6.4247    0.0000 H   0  0  0  0  0  0  0  0  0  0  0  0
  -10.5629   -0.5361    0.0000 H   0  0  0  0  0  0  0  0  0  0  0  0
  -13.9493   -1.3946    0.0000 H   0  0  0  0  0  0  0  0  0  0  0  0
  -11.0264   -1.9627    0.0000 H   0  0  0  0  0  0  0  0  0  0  0  0
  -12.9165   -2.9257    0.0000 H   0  0  0  0  0  0  0  0  0  0  0  0
   -8.9936    0.6793    0.0000 H   0  0  0  0  0  0  0  0  0  0  0  0
   -6.7679    0.9664    0.0000 H   0  0  0  0  0  0  0  0  0  0  0  0
   -9.2250    2.5094    0.0000 H   0  0  0  0  0  0  0  0  0  0  0  0
  1  2  2  0
  2  3  1  0
  3  4  1  0
  4  5  2  0
  5  6  1  0
  6  7  1  0
  7  8  1  0
  8  9  1  0
  9 10  1  0
 10 11  1  0
 11 12  1  0
 12 13  1  0
 13 14  1  0
 14 15  1  0
 15 16  1  0
 12 17  1  0
 17 18  1  0
 18 19  1  0
 18 20  1  0
 20 21  1  0
 21 22  1  0
 22 23  1  0
 23 24  1  0
 24 25  1  0
 25 26  1  0
 26 27  1  0
 27 28  1  0
 27 29  1  0
 29 30  1  0
 30 31  1  0
 31 32  1  0
 32 33  1  0
 33 34  1  0
 34 35  1  0
 35 36  1  0
 36 37  1  0
 37 38  1  0
 38 39  1  0
 39 40  1  0
 35 41  1  0
 41 42  1  0
 31 43  2  0
 43 44  1  0
 44 45  1  0
 24  4  1  0
 44 26  1  0
  8  6  1  0
 22 10  1  0
 45 29  1  0
 21  8  1  0
 45 30  1  0
 14 12  1  0
 23 18  1  0
 41 33  1  0
 23 20  1  0
 37 35  1  0
  1 46  1  0
  1 47  1  0
  2 48  1  0
  3 49  1  0
  3 50  1  0
  5 51  1  0
  6 52  1  0
  7 53  1  0
  7 54  1  0
  9 55  1  0
  9 56  1  0
 10 57  1  0
 13 58  1  0
 13 59  1  0
 14 60  1  0
 15 61  1  0
 15 62  1  0
 16 63  1  0
 16 64  1  0
 16 65  1  0
 19 66  1  0
 19 67  1  0
 19 68  1  0
 20 69  1  0
 22 70  1  0
 24 71  1  0
 25 72  1  0
 25 73  1  0
 26 74  1  0
 27 75  1  0
 28 76  1  0
 29 77  1  0
 30 78  1  0
 33 79  1  0
 37 80  1  0
 38 81  1  0
 38 82  1  0
 39 83  1  0
 39 84  1  0
 40 85  1  0
 40 86  1  0
 40 87  1  0
 41 88  1  0
 42 89  1  0
 42 90  1  0
 42 91  1  0
 43 92  1  0
 44 93  1  0
 45 94  1  0
M  RAD  2  34   2  36   2
M  END
$$$$
