
     RDKit          2D

 41 47  0  0  0  0  0  0  0  0999 V2000
   -6.4367    1.2877    0.0000 C   0  0  0  0  0  0  0  0  0  0  0  0
   -5.4725    0.1386    0.0000 C   0  0  0  0  0  0  0  0  0  0  0  0
   -4.5083   -1.0105    0.0000 N   0  0  0  0  0  0  0  0  0  0  0  0
   -3.0311   -0.7500    0.0000 C   0  0  0  0  0  0  0  0  0  0  0  0
   -1.7321    0.0000    0.0000 C   0  0  0  0  0  0  0  0  0  0  0  0
   -0.4330    0.7500    0.0000 C   0  0  0  0  0  0  0  0  0  0  0  0
   -0.4330    2.2500    0.0000 O   0  0  0  0  0  0  0  0  0  0  0  0
    0.8660    0.0000    0.0000 O   0  0  0  0  0  0  0  0  0  0  0  0
   -0.4330   -0.7500    0.0000 C   0  0  0  0  0  0  0  0  0  0  0  0
   -0.4330   -2.2500    0.0000 C   0  0  0  0  0  0  0  0  0  0  0  0
   -1.7321   -3.0000    0.0000 C   0  0  0  0  0  0  0  0  0  0  0  0
   -3.0311   -2.2500    0.0000 N   0  0  0  0  0  0  0  0  0  0  0  0
   -4.3301   -3.0000    0.0000 N   0  0  0  0  0  0  0  0  0  0  0  0
   -5.7004   -2.3899    0.0000 C   0  0  0  0  0  0  0  0  0  0  0  0
   -7.1677   -2.0780    0.0000 C   0  0  0  0  0  0  0  0  0  0  0  0
   -6.7041   -3.5046    0.0000 C   0  0  0  0  0  0  0  0  0  0  0  0
   -5.9541   -4.8037    0.0000 C   0  0  0  0  0  0  0  0  0  0  0  0
   -4.9504   -5.9184    0.0000 C   0  0  0  0  0  0  0  0  0  0  0  0
   -3.4832   -5.6065    0.0000 C   0  0  0  0  0  0  0  0  0  0  0  0
   -4.4869   -4.4918    0.0000 C   0  0  0  0  0  0  0  0  0  0  0  0
   -7.4008    2.4367    0.0000 H   0  0  0  0  0  0  0  0  0  0  0  0
   -7.5857    0.3235    0.0000 H   0  0  0  0  0  0  0  0  0  0  0  0
   -5.2876    2.2518    0.0000 H   0  0  0  0  0  0  0  0  0  0  0  0
   -6.7305   -0.6783    0.0000 H   0  0  0  0  0  0  0  0  0  0  0  0
   -4.4495    1.2357    0.0000 H   0  0  0  0  0  0  0  0  0  0  0  0
   -5.2397   -1.6689    0.0000 H   0  0  0  0  0  0  0  0  0  0  0  0
   -3.3685    0.7116    0.0000 H   0  0  0  0  0  0  0  0  0  0  0  0
   -1.1783   -0.5734    0.0000 H   0  0  0  0  0  0  0  0  0  0  0  0
    0.8660    3.0000    0.0000 H   0  0  0  0  0  0  0  0  0  0  0  0
    1.0442   -1.9895    0.0000 H   0  0  0  0  0  0  0  0  0  0  0  0
    0.0800   -3.6595    0.0000 H   0  0  0  0  0  0  0  0  0  0  0  0
   -0.7679   -4.1491    0.0000 H   0  0  0  0  0  0  0  0  0  0  0  0
   -2.5490   -4.2580    0.0000 H   0  0  0  0  0  0  0  0  0  0  0  0
   -5.5959   -0.8935    0.0000 H   0  0  0  0  0  0  0  0  0  0  0  0
   -7.2984   -0.5837    0.0000 H   0  0  0  0  0  0  0  0  0  0  0  0
   -8.6531   -2.2868    0.0000 H   0  0  0  0  0  0  0  0  0  0  0  0
   -8.0745   -4.1147    0.0000 H   0  0  0  0  0  0  0  0  0  0  0  0
   -7.1677   -5.6853    0.0000 H   0  0  0  0  0  0  0  0  0  0  0  0
   -5.4140   -7.3450    0.0000 H   0  0  0  0  0  0  0  0  0  0  0  0
   -2.9213   -6.9973    0.0000 H   0  0  0  0  0  0  0  0  0  0  0  0
   -2.1237   -4.9726    0.0000 H   0  0  0  0  0  0  0  0  0  0  0  0
  1  2  1  0
  2  3  1  0
  3  4  1  0
  4  5  1  0
  5  6  1  0
  6  7  1  0
  6  8  1  0
  8  9  1  0
  9 10  1  0
 10 11  1  0
 11 12  1  0
 12 13  1  0
 13 14  1  0
 14 15  1  0
 15 16  1  0
 16 17  1  0
 17 18  1  0
 18 19  1  0
 19 20  1  0
 12  4  1  0
 20 13  1  0
  9  5  1  0
 16 14  1  0
 20 17  1  0
  9  6  1  0
 20 18  1  0
  1 21  1  0
  1 22  1  0
  1 23  1  0
  2 24  1  0
  2 25  1  0
  3 26  1  0
  4 27  1  0
  5 28  1  0
  7 29  1  0
 10 30  1  0
 10 31  1  0
 11 32  1  0
 11 33  1  0
 14 34  1  0
 15 35  1  0
 15 36  1  0
 16 37  1  0
 17 38  1  0
 18 39  1  0
 19 40  1  0
 19 41  1  0
M  END
$$$$
