
     RDKit          2D

 62 65  0  0  0  0  0  0  0  0999 V2000
   -0.6204    4.3478    0.0000 C   0  0  0  0  0  0  0  0  0  0  0  0
    0.3833    3.2331    0.0000 C   0  0  0  0  0  0  0  0  0  0  0  0
    1.3870    2.1184    0.0000 C   0  0  0  0  0  0  0  0  0  0  0  0
    2.3907    1.0037    0.0000 C   0  0  0  0  0  0  0  0  0  0  0  0
    3.3944   -0.1110    0.0000 C   0  0  0  0  0  0  0  0  0  0  0  0
    1.2760    0.0000    0.0000 C   0  0  0  0  0  0  0  0  0  0  0  0
    0.3943    1.2135    0.0000 C   0  0  0  0  0  0  0  0  0  0  0  0
   -1.0323    0.7500    0.0000 C   0  0  0  0  0  0  0  0  0  0  0  0
   -1.0323   -0.7500    0.0000 C   0  0  0  0  0  0  0  0  0  0  0  0
   -1.3442   -2.2172    0.0000 C   0  0  0  0  0  0  0  0  0  0  0  0
   -2.8432   -2.1649    0.0000 C   0  0  0  0  0  0  0  0  0  0  0  0
   -3.6381   -3.4369    0.0000 C   0  0  0  0  0  0  0  0  0  0  0  0
   -5.0289   -2.8750    0.0000 C   0  0  0  0  0  0  0  0  0  0  0  0
   -6.4197   -2.3131    0.0000 P   0  0  0  0  0  0  0  0  0  0  0  0
   -7.0058   -0.9324    0.0000 C   0  0  0  0  0  0  0  0  0  0  0  0
   -8.3865   -1.5185    0.0000 C   0  0  0  0  0  0  0  0  0  0  0  0
   -9.7673   -2.1046    0.0000 C   0  0  0  0  0  0  0  0  0  0  0  0
   -7.8004   -2.8992    0.0000 C   0  0  0  0  0  0  0  0  0  0  0  0
   -7.2143   -4.2800    0.0000 Br  0  0  0  0  0  0  0  0  0  0  0  0
   -2.1390   -3.4893    0.0000 C   0  0  0  0  0  0  0  0  0  0  0  0
    0.3943   -1.2135    0.0000 C   0  0  0  0  0  0  0  0  0  0  0  0
    1.6933   -1.9635    0.0000 C   0  0  0  0  0  0  0  0  0  0  0  0
   -0.2158   -2.5838    0.0000 C   0  0  0  0  0  0  0  0  0  0  0  0
   -0.8259   -3.9542    0.0000 C   0  0  0  0  0  0  0  0  0  0  0  0
   -1.6241    5.4626    0.0000 H   0  0  0  0  0  0  0  0  0  0  0  0
    0.4943    5.3515    0.0000 H   0  0  0  0  0  0  0  0  0  0  0  0
   -1.7351    3.3442    0.0000 H   0  0  0  0  0  0  0  0  0  0  0  0
   -0.9412    2.5290    0.0000 H   0  0  0  0  0  0  0  0  0  0  0  0
    1.4980    4.2368    0.0000 H   0  0  0  0  0  0  0  0  0  0  0  0
    0.6831    1.7442    0.0000 H   0  0  0  0  0  0  0  0  0  0  0  0
    2.5017    3.1221    0.0000 H   0  0  0  0  0  0  0  0  0  0  0  0
    3.5054    2.0074    0.0000 H   0  0  0  0  0  0  0  0  0  0  0  0
    4.3981   -1.2257    0.0000 H   0  0  0  0  0  0  0  0  0  0  0  0
    4.6231    0.7493    0.0000 H   0  0  0  0  0  0  0  0  0  0  0  0
    4.3784    1.0211    0.0000 H   0  0  0  0  0  0  0  0  0  0  0  0
    2.5047   -0.8603    0.0000 H   0  0  0  0  0  0  0  0  0  0  0  0
   -0.3783    2.4993    0.0000 H   0  0  0  0  0  0  0  0  0  0  0  0
    1.4733    2.2556    0.0000 H   0  0  0  0  0  0  0  0  0  0  0  0
   -2.5241    0.5932    0.0000 H   0  0  0  0  0  0  0  0  0  0  0  0
   -1.5207    2.1683    0.0000 H   0  0  0  0  0  0  0  0  0  0  0  0
   -2.5241   -0.5932    0.0000 H   0  0  0  0  0  0  0  0  0  0  0  0
   -0.1307   -3.0990    0.0000 H   0  0  0  0  0  0  0  0  0  0  0  0
   -3.5474   -0.8405    0.0000 H   0  0  0  0  0  0  0  0  0  0  0  0
   -3.9500   -4.9042    0.0000 H   0  0  0  0  0  0  0  0  0  0  0  0
   -5.5908   -4.2658    0.0000 H   0  0  0  0  0  0  0  0  0  0  0  0
   -4.4670   -1.4843    0.0000 H   0  0  0  0  0  0  0  0  0  0  0  0
   -7.5919    0.4484    0.0000 H   0  0  0  0  0  0  0  0  0  0  0  0
   -5.6250   -0.3463    0.0000 H   0  0  0  0  0  0  0  0  0  0  0  0
   -8.9726   -0.1377    0.0000 H   0  0  0  0  0  0  0  0  0  0  0  0
  -11.1480   -2.6907    0.0000 H   0  0  0  0  0  0  0  0  0  0  0  0
  -10.3534   -0.7238    0.0000 H   0  0  0  0  0  0  0  0  0  0  0  0
   -9.3539   -3.5465    0.0000 H   0  0  0  0  0  0  0  0  0  0  0  0
   -9.0994   -3.6493    0.0000 H   0  0  0  0  0  0  0  0  0  0  0  0
   -1.6015   -4.8897    0.0000 H   0  0  0  0  0  0  0  0  0  0  0  0
    2.9924   -2.7135    0.0000 H   0  0  0  0  0  0  0  0  0  0  0  0
    1.1073   -3.3443    0.0000 H   0  0  0  0  0  0  0  0  0  0  0  0
    2.5961   -0.7656    0.0000 H   0  0  0  0  0  0  0  0  0  0  0  0
    1.0699   -3.3564    0.0000 H   0  0  0  0  0  0  0  0  0  0  0  0
   -1.6930   -2.3235    0.0000 H   0  0  0  0  0  0  0  0  0  0  0  0
   -1.2644   -5.3886    0.0000 H   0  0  0  0  0  0  0  0  0  0  0  0
    0.5444   -4.5643    0.0000 H   0  0  0  0  0  0  0  0  0  0  0  0
   -2.3031   -3.6938    0.0000 H   0  0  0  0  0  0  0  0  0  0  0  0
  1  2  1  0
  2  3  1  0
  3  4  1  0
  4  5  1  0
  4  6  1  0
  6  7  1  0
  7  8  1  0
  8  9  1  0
  9 10  1  0
 10 11  1  0
 11 12  1  0
 12 13  1  0
 13 14  1  0
 14 15  1  0
 15 16  1  0
 16 17  1  0
 16 18  1  0
 18 19  1  0
 12 20  1  0
  9 21  1  0
 21 22  1  6
 21 23  1  0
 23 24  1  0
 21  6  1  0
 20 10  1  0
 20 11  1  0
 18 14  1  0
  1 25  1  0
  1 26  1  0
  1 27  1  0
  2 28  1  0
  2 29  1  0
  3 30  1  0
  3 31  1  0
  4 32  1  6
  5 33  1  0
  5 34  1  0
  5 35  1  0
  6 36  1  6
  7 37  1  0
  7 38  1  0
  8 39  1  0
  8 40  1  0
  9 41  1  6
 10 42  1  1
 11 43  1  6
 12 44  1  1
 13 45  1  0
 13 46  1  0
 15 47  1  0
 15 48  1  0
 16 49  1  1
 17 50  1  0
 17 51  1  0
 17 52  1  0
 18 53  1  6
 20 54  1  6
 22 55  1  0
 22 56  1  0
 22 57  1  0
 23 58  1  0
 23 59  1  0
 24 60  1  0
 24 61  1  0
 24 62  1  0
M  END
$$$$
