
     RDKit          2D

 44 49  0  0  0  0  0  0  0  0999 V2000
   -0.7679   -2.6491    0.0000 C   0  0  0  0  0  0  0  0  0  0  0  0
   -1.7321   -1.5000    0.0000 C   0  0  0  0  0  0  0  0  0  0  0  0
   -3.0311   -0.7500    0.0000 C   0  0  0  0  0  0  0  0  0  0  0  0
   -3.0311    0.7500    0.0000 C   0  0  0  0  0  0  0  0  0  0  0  0
   -1.7321    1.5000    0.0000 C   0  0  0  0  0  0  0  0  0  0  0  0
   -2.6962    2.6491    0.0000 O   0  0  0  0  0  0  0  0  0  0  0  0
   -2.1832    4.0586    0.0000 C   0  0  0  0  0  0  0  0  0  0  0  0
   -0.7060    3.7981    0.0000 C   0  0  0  0  0  0  0  0  0  0  0  0
    0.7712    4.0586    0.0000 N   0  0  0  0  0  0  0  0  0  0  0  0
   -0.1930    5.2077    0.0000 C   0  0  0  0  0  0  0  0  0  0  0  0
    0.3201    6.6172    0.0000 C   0  0  0  0  0  0  0  0  0  0  0  0
   -1.1571    6.3567    0.0000 C   0  0  0  0  0  0  0  0  0  0  0  0
   -1.6702    7.7663    0.0000 C   0  0  0  0  0  0  0  0  0  0  0  0
   -3.4822    4.8086    0.0000 C   0  0  0  0  0  0  0  0  0  0  0  0
   -3.4822    6.3086    0.0000 C   0  0  0  0  0  0  0  0  0  0  0  0
   -4.9595    6.5691    0.0000 I   0  0  0  0  0  0  0  0  0  0  0  0
   -2.1832    5.5586    0.0000 C   0  0  0  0  0  0  0  0  0  0  0  0
   -0.4330    0.7500    0.0000 C   0  0  0  0  0  0  0  0  0  0  0  0
    0.8660    0.0000    0.0000 C   0  0  0  0  0  0  0  0  0  0  0  0
   -0.4330   -0.7500    0.0000 C   0  0  0  0  0  0  0  0  0  0  0  0
    0.1963   -3.7981    0.0000 H   0  0  0  0  0  0  0  0  0  0  0  0
   -1.9169   -3.6132    0.0000 H   0  0  0  0  0  0  0  0  0  0  0  0
    0.4902   -1.8321    0.0000 H   0  0  0  0  0  0  0  0  0  0  0  0
   -2.6962   -2.6491    0.0000 H   0  0  0  0  0  0  0  0  0  0  0  0
   -3.5441   -2.1595    0.0000 H   0  0  0  0  0  0  0  0  0  0  0  0
   -4.5083   -0.4895    0.0000 H   0  0  0  0  0  0  0  0  0  0  0  0
   -4.5083    0.4895    0.0000 H   0  0  0  0  0  0  0  0  0  0  0  0
   -3.5441    2.1595    0.0000 H   0  0  0  0  0  0  0  0  0  0  0  0
   -1.0842    2.1041    0.0000 H   0  0  0  0  0  0  0  0  0  0  0  0
   -0.5980    2.9190    0.0000 H   0  0  0  0  0  0  0  0  0  0  0  0
    2.1808    3.5456    0.0000 H   0  0  0  0  0  0  0  0  0  0  0  0
    1.7973    6.3567    0.0000 H   0  0  0  0  0  0  0  0  0  0  0  0
    0.5029    8.1060    0.0000 H   0  0  0  0  0  0  0  0  0  0  0  0
   -1.9234    6.1371    0.0000 H   0  0  0  0  0  0  0  0  0  0  0  0
   -2.1832    9.1758    0.0000 H   0  0  0  0  0  0  0  0  0  0  0  0
   -0.3337    8.4473    0.0000 H   0  0  0  0  0  0  0  0  0  0  0  0
   -3.1317    7.4289    0.0000 H   0  0  0  0  0  0  0  0  0  0  0  0
   -4.7813    4.0586    0.0000 H   0  0  0  0  0  0  0  0  0  0  0  0
   -3.1449    7.7702    0.0000 H   0  0  0  0  0  0  0  0  0  0  0  0
   -1.1042    6.6007    0.0000 H   0  0  0  0  0  0  0  0  0  0  0  0
    0.3170    2.0490    0.0000 H   0  0  0  0  0  0  0  0  0  0  0  0
    1.8302    1.1491    0.0000 H   0  0  0  0  0  0  0  0  0  0  0  0
    1.8302   -1.1491    0.0000 H   0  0  0  0  0  0  0  0  0  0  0  0
    0.4697   -1.9479    0.0000 H   0  0  0  0  0  0  0  0  0  0  0  0
  1  2  1  0
  2  3  1  0
  3  4  1  0
  4  5  1  0
  5  6  1  0
  6  7  1  0
  7  8  1  0
  8  9  1  0
  9 10  1  0
 10 11  1  0
 11 12  1  0
 12 13  1  0
  7 14  1  0
 14 15  1  0
 15 16  1  0
 15 17  1  0
  5 18  1  0
 18 19  1  0
 19 20  1  0
 20  2  1  0
 17  7  1  0
 20 18  1  0
 10  8  1  0
 17 14  1  0
 12 10  1  0
  1 21  1  0
  1 22  1  0
  1 23  1  0
  2 24  1  0
  3 25  1  0
  3 26  1  0
  4 27  1  0
  4 28  1  0
  5 29  1  0
  8 30  1  0
  9 31  1  0
 11 32  1  0
 11 33  1  0
 12 34  1  0
 13 35  1  0
 13 36  1  0
 13 37  1  0
 14 38  1  0
 15 39  1  0
 17 40  1  0
 18 41  1  0
 19 42  1  0
 19 43  1  0
 20 44  1  0
M  END
$$$$
