
     RDKit          2D

 27 28  0  0  0  0  0  0  0  0999 V2000
    2.6491    0.9642    0.0000 F   0  0  0  0  0  0  0  0  0  0  0  0
    1.5000    0.0000    0.0000 C   0  0  0  0  0  0  0  0  0  0  0  0
    0.7500   -1.2990    0.0000 C   0  0  0  0  0  0  0  0  0  0  0  0
   -0.7500   -1.2990    0.0000 C   0  0  0  0  0  0  0  0  0  0  0  0
   -1.5000    0.0000    0.0000 C   0  0  0  0  0  0  0  0  0  0  0  0
   -0.7500    1.2990    0.0000 C   0  0  0  0  0  0  0  0  0  0  0  0
    0.7500    1.2990    0.0000 C   0  0  0  0  0  0  0  0  0  0  0  0
   -0.2384    2.5871    0.0000 C   0  0  0  0  0  0  0  0  0  0  0  0
   -1.6873    2.1989    0.0000 C   0  0  0  0  0  0  0  0  0  0  0  0
   -2.4373    0.8999    0.0000 N   0  0  0  0  0  0  0  0  0  0  0  0
   -2.0490   -0.5490    0.0000 C   0  0  0  0  0  0  0  0  0  0  0  0
    2.6491   -0.9642    0.0000 H   0  0  0  0  0  0  0  0  0  0  0  0
    2.1595   -1.8121    0.0000 H   0  0  0  0  0  0  0  0  0  0  0  0
    0.4895   -2.7762    0.0000 H   0  0  0  0  0  0  0  0  0  0  0  0
   -1.5000   -2.5981    0.0000 H   0  0  0  0  0  0  0  0  0  0  0  0
   -2.8482   -0.6575    0.0000 H   0  0  0  0  0  0  0  0  0  0  0  0
   -1.9685    0.6449    0.0000 H   0  0  0  0  0  0  0  0  0  0  0  0
   -2.2418    1.4558    0.0000 H   0  0  0  0  0  0  0  0  0  0  0  0
   -0.8547    2.7954    0.0000 H   0  0  0  0  0  0  0  0  0  0  0  0
    1.5000    2.5981    0.0000 H   0  0  0  0  0  0  0  0  0  0  0  0
   -0.8244    3.9679    0.0000 H   0  0  0  0  0  0  0  0  0  0  0  0
    0.8223    3.6478    0.0000 H   0  0  0  0  0  0  0  0  0  0  0  0
   -3.1362    2.5871    0.0000 H   0  0  0  0  0  0  0  0  0  0  0  0
   -1.8701    3.6877    0.0000 H   0  0  0  0  0  0  0  0  0  0  0  0
   -3.9244    1.0956    0.0000 H   0  0  0  0  0  0  0  0  0  0  0  0
   -2.4373   -1.9979    0.0000 H   0  0  0  0  0  0  0  0  0  0  0  0
   -3.5490   -0.5490    0.0000 H   0  0  0  0  0  0  0  0  0  0  0  0
  1  2  1  0
  2  3  1  0
  3  4  1  0
  4  5  1  0
  5  6  1  0
  6  7  1  0
  7  8  1  0
  8  9  1  0
  9 10  1  0
 10 11  1  0
  7  2  1  0
 11  4  1  0
  2 12  1  0
  3 13  1  0
  3 14  1  0
  4 15  1  0
  5 16  1  0
  5 17  1  0
  6 18  1  0
  6 19  1  0
  7 20  1  0
  8 21  1  0
  8 22  1  0
  9 23  1  0
  9 24  1  0
 10 25  1  0
 11 26  1  0
 11 27  1  0
M  END
$$$$
