
     RDKit          2D

 37 40  0  0  0  0  0  0  0  0999 V2000
   -6.5530    5.7453    0.0000 C   0  0  0  0  0  0  0  0  0  0  0  0
   -5.5888    4.5963    0.0000 C   0  0  0  0  0  0  0  0  0  0  0  0
   -4.6246    3.4472    0.0000 C   0  0  0  0  0  0  0  0  0  0  0  0
   -3.6604    2.2981    0.0000 C   0  0  0  0  0  0  0  0  0  0  0  0
   -2.6962    1.1491    0.0000 C   0  0  0  0  0  0  0  0  0  0  0  0
   -1.7321    0.0000    0.0000 C   0  0  0  0  0  0  0  0  0  0  0  0
   -0.4330    0.7500    0.0000 C   0  0  0  0  0  0  0  0  0  0  0  0
    0.8660    0.0000    0.0000 C   0  0  0  0  0  0  0  0  0  0  0  0
   -0.4330   -0.7500    0.0000 C   0  0  0  0  0  0  0  0  0  0  0  0
   -0.4330   -2.2500    0.0000 C   0  0  0  0  0  0  0  0  0  0  0  0
   -4.8095    1.3340    0.0000 C   0  0  0  0  0  0  0  0  0  0  0  0
   -5.9585    2.2981    0.0000 C   0  0  0  0  0  0  0  0  0  0  0  0
   -7.3681    1.7851    0.0000 C   0  0  0  0  0  0  0  0  0  0  0  0
   -8.1181    3.0841    0.0000 O   0  0  0  0  0  0  0  0  0  0  0  0
   -6.2190    0.8209    0.0000 C   0  0  0  0  0  0  0  0  0  0  0  0
   -7.5171    6.8944    0.0000 H   0  0  0  0  0  0  0  0  0  0  0  0
   -7.7020    4.7812    0.0000 H   0  0  0  0  0  0  0  0  0  0  0  0
   -5.4039    6.7095    0.0000 H   0  0  0  0  0  0  0  0  0  0  0  0
   -4.4397    5.5604    0.0000 H   0  0  0  0  0  0  0  0  0  0  0  0
   -6.7378    3.6321    0.0000 H   0  0  0  0  0  0  0  0  0  0  0  0
   -5.3411    3.0978    0.0000 H   0  0  0  0  0  0  0  0  0  0  0  0
   -3.4755    4.4114    0.0000 H   0  0  0  0  0  0  0  0  0  0  0  0
   -2.5113    3.2623    0.0000 H   0  0  0  0  0  0  0  0  0  0  0  0
   -1.5472    2.1132    0.0000 H   0  0  0  0  0  0  0  0  0  0  0  0
   -3.4420    0.3493    0.0000 H   0  0  0  0  0  0  0  0  0  0  0  0
   -2.6962   -1.1491    0.0000 H   0  0  0  0  0  0  0  0  0  0  0  0
   -0.4330    2.2500    0.0000 H   0  0  0  0  0  0  0  0  0  0  0  0
    1.8302    1.1491    0.0000 H   0  0  0  0  0  0  0  0  0  0  0  0
    1.8302   -1.1491    0.0000 H   0  0  0  0  0  0  0  0  0  0  0  0
   -0.4330   -3.7500    0.0000 H   0  0  0  0  0  0  0  0  0  0  0  0
   -1.9330   -2.2500    0.0000 H   0  0  0  0  0  0  0  0  0  0  0  0
    1.0670   -2.2500    0.0000 H   0  0  0  0  0  0  0  0  0  0  0  0
   -4.3822    0.3274    0.0000 H   0  0  0  0  0  0  0  0  0  0  0  0
   -5.7476    3.4947    0.0000 H   0  0  0  0  0  0  0  0  0  0  0  0
   -8.5172    0.8209    0.0000 H   0  0  0  0  0  0  0  0  0  0  0  0
   -9.6181    3.0841    0.0000 H   0  0  0  0  0  0  0  0  0  0  0  0
   -6.4795   -0.6563    0.0000 H   0  0  0  0  0  0  0  0  0  0  0  0
  1  2  1  0
  2  3  1  0
  3  4  1  0
  4  5  1  0
  5  6  1  0
  6  7  1  0
  7  8  1  0
  8  9  1  0
  9 10  1  1
  4 11  1  0
 11 12  1  0
 12 13  1  0
 13 14  1  0
 13 15  1  0
  9  6  1  0
 15 11  1  0
  9  7  1  0
 15 12  1  0
  1 16  1  0
  1 17  1  0
  1 18  1  0
  2 19  1  0
  2 20  1  0
  3 21  1  0
  3 22  1  0
  4 23  1  6
  5 24  1  0
  5 25  1  0
  6 26  1  6
  7 27  1  1
  8 28  1  0
  8 29  1  0
 10 30  1  0
 10 31  1  0
 10 32  1  0
 11 33  1  6
 12 34  1  6
 13 35  1  6
 14 36  1  0
 15 37  1  6
M  END
$$$$
