
     RDKit          2D

103111  0  0  0  0  0  0  0  0999 V2000
   -9.9531    6.1539    0.0000 C   0  0  0  0  0  0  0  0  0  0  0  0
  -10.2288    4.6794    0.0000 C   0  0  0  0  0  0  0  0  0  0  0  0
   -9.0897    3.7034    0.0000 C   0  0  0  0  0  0  0  0  0  0  0  0
  -10.0657    2.5644    0.0000 C   0  0  0  0  0  0  0  0  0  0  0  0
   -7.9507    2.7275    0.0000 C   0  0  0  0  0  0  0  0  0  0  0  0
   -8.2264    1.2530    0.0000 C   0  0  0  0  0  0  0  0  0  0  0  0
   -6.5359    3.2259    0.0000 C   0  0  0  0  0  0  0  0  0  0  0  0
   -5.3770    4.1782    0.0000 C   0  0  0  0  0  0  0  0  0  0  0  0
   -6.2996    4.9688    0.0000 F   0  0  0  0  0  0  0  0  0  0  0  0
   -3.6638    4.4732    0.0000 C   0  0  0  0  0  0  0  0  0  0  0  0
   -2.7403    3.2912    0.0000 C   0  0  0  0  0  0  0  0  0  0  0  0
   -1.4968    2.4524    0.0000 C   0  0  0  0  0  0  0  0  0  0  0  0
   -1.9102    1.0105    0.0000 C   0  0  0  0  0  0  0  0  0  0  0  0
   -2.0149   -0.4859    0.0000 C   0  0  0  0  0  0  0  0  0  0  0  0
   -0.4330    0.7500    0.0000 C   0  0  0  0  0  0  0  0  0  0  0  0
    0.8660    0.0000    0.0000 C   0  0  0  0  0  0  0  0  0  0  0  0
    2.3149   -0.3882    0.0000 C   0  0  0  0  0  0  0  0  0  0  0  0
    3.0649   -1.6873    0.0000 C   0  0  0  0  0  0  0  0  0  0  0  0
    4.3640   -2.4373    0.0000 C   0  0  0  0  0  0  0  0  0  0  0  0
    5.6630   -3.1873    0.0000 C   0  0  0  0  0  0  0  0  0  0  0  0
    6.9620   -3.9373    0.0000 C   0  0  0  0  0  0  0  0  0  0  0  0
    8.2611   -4.6873    0.0000 C   0  0  0  0  0  0  0  0  0  0  0  0
    9.5601   -5.4373    0.0000 C   0  0  0  0  0  0  0  0  0  0  0  0
   10.8591   -6.1873    0.0000 Cl  0  0  0  0  0  0  0  0  0  0  0  0
    5.1140   -1.1382    0.0000 C   0  0  0  0  0  0  0  0  0  0  0  0
    5.8640    0.1608    0.0000 C   0  0  0  0  0  0  0  0  0  0  0  0
    7.1630   -0.5892    0.0000 C   0  0  0  0  0  0  0  0  0  0  0  0
    7.9130    0.7098    0.0000 C   0  0  0  0  0  0  0  0  0  0  0  0
    6.6140    1.4598    0.0000 S   0  0  0  0  0  0  0  0  0  0  0  0
    2.6767   -3.1362    0.0000 N   0  0  0  0  0  0  0  0  0  0  0  0
    1.3776   -3.8862    0.0000 C   0  0  0  0  0  0  0  0  0  0  0  0
   -0.0712   -3.4979    0.0000 C   0  0  0  0  0  0  0  0  0  0  0  0
   -0.8212   -4.7970    0.0000 N   0  0  0  0  0  0  0  0  0  0  0  0
   -2.3212   -4.7970    0.0000 C   0  0  0  0  0  0  0  0  0  0  0  0
   -3.0712   -3.4979    0.0000 N   0  0  0  0  0  0  0  0  0  0  0  0
   -2.3212   -2.1989    0.0000 C   0  0  0  0  0  0  0  0  0  0  0  0
   -0.8212   -2.1989    0.0000 N   0  0  0  0  0  0  0  0  0  0  0  0
   -0.4330   -0.7500    0.0000 C   0  0  0  0  0  0  0  0  0  0  0  0
   -3.4093    0.9581    0.0000 C   0  0  0  0  0  0  0  0  0  0  0  0
   -3.5139   -0.5382    0.0000 C   0  0  0  0  0  0  0  0  0  0  0  0
   -4.8865    1.2186    0.0000 C   0  0  0  0  0  0  0  0  0  0  0  0
   -6.2907    1.7461    0.0000 C   0  0  0  0  0  0  0  0  0  0  0  0
   -6.5664    0.2717    0.0000 C   0  0  0  0  0  0  0  0  0  0  0  0
   -4.8458    3.5497    0.0000 C   0  0  0  0  0  0  0  0  0  0  0  0
   -3.9223    2.3677    0.0000 C   0  0  0  0  0  0  0  0  0  0  0  0
  -11.0922    7.1298    0.0000 H   0  0  0  0  0  0  0  0  0  0  0  0
   -8.5384    6.6523    0.0000 H   0  0  0  0  0  0  0  0  0  0  0  0
  -11.6938    4.3571    0.0000 H   0  0  0  0  0  0  0  0  0  0  0  0
   -8.2599    4.9530    0.0000 H   0  0  0  0  0  0  0  0  0  0  0  0
  -11.0417    1.4253    0.0000 H   0  0  0  0  0  0  0  0  0  0  0  0
  -11.3153    3.3942    0.0000 H   0  0  0  0  0  0  0  0  0  0  0  0
   -9.5526    1.8424    0.0000 H   0  0  0  0  0  0  0  0  0  0  0  0
   -9.0618    0.9587    0.0000 H   0  0  0  0  0  0  0  0  0  0  0  0
   -7.3573    0.0304    0.0000 H   0  0  0  0  0  0  0  0  0  0  0  0
   -6.9991    4.3492    0.0000 H   0  0  0  0  0  0  0  0  0  0  0  0
   -4.6136    5.4695    0.0000 H   0  0  0  0  0  0  0  0  0  0  0  0
   -3.4810    5.9620    0.0000 H   0  0  0  0  0  0  0  0  0  0  0  0
   -1.7173    4.3882    0.0000 H   0  0  0  0  0  0  0  0  0  0  0  0
   -0.7926    3.7768    0.0000 H   0  0  0  0  0  0  0  0  0  0  0  0
   -0.0479    2.0642    0.0000 H   0  0  0  0  0  0  0  0  0  0  0  0
   -2.2886   -1.3282    0.0000 H   0  0  0  0  0  0  0  0  0  0  0  0
   -3.0917   -0.6758    0.0000 H   0  0  0  0  0  0  0  0  0  0  0  0
   -0.5883   -0.9495    0.0000 H   0  0  0  0  0  0  0  0  0  0  0  0
    0.2480    2.0865    0.0000 H   0  0  0  0  0  0  0  0  0  0  0  0
    1.4401    1.3858    0.0000 H   0  0  0  0  0  0  0  0  0  0  0  0
    3.7057    0.1737    0.0000 H   0  0  0  0  0  0  0  0  0  0  0  0
    2.3149    1.1118    0.0000 H   0  0  0  0  0  0  0  0  0  0  0  0
    4.2470   -0.7638    0.0000 H   0  0  0  0  0  0  0  0  0  0  0  0
    3.7779   -3.8180    0.0000 H   0  0  0  0  0  0  0  0  0  0  0  0
    4.7602   -4.3852    0.0000 H   0  0  0  0  0  0  0  0  0  0  0  0
    5.0769   -4.5680    0.0000 H   0  0  0  0  0  0  0  0  0  0  0  0
    6.2120   -5.2363    0.0000 H   0  0  0  0  0  0  0  0  0  0  0  0
    7.7120   -2.6382    0.0000 H   0  0  0  0  0  0  0  0  0  0  0  0
    7.5111   -5.9863    0.0000 H   0  0  0  0  0  0  0  0  0  0  0  0
    9.0111   -3.3882    0.0000 H   0  0  0  0  0  0  0  0  0  0  0  0
   10.3101   -4.1382    0.0000 H   0  0  0  0  0  0  0  0  0  0  0  0
    8.8101   -6.7363    0.0000 H   0  0  0  0  0  0  0  0  0  0  0  0
    6.3119   -2.0410    0.0000 H   0  0  0  0  0  0  0  0  0  0  0  0
    6.4947   -1.7243    0.0000 H   0  0  0  0  0  0  0  0  0  0  0  0
    4.5649    0.9108    0.0000 H   0  0  0  0  0  0  0  0  0  0  0  0
    8.4620   -1.3392    0.0000 H   0  0  0  0  0  0  0  0  0  0  0  0
    7.5764    0.8527    0.0000 H   0  0  0  0  0  0  0  0  0  0  0  0
    8.6630    2.0089    0.0000 H   0  0  0  0  0  0  0  0  0  0  0  0
    9.2120   -0.0402    0.0000 H   0  0  0  0  0  0  0  0  0  0  0  0
    3.7465   -4.1875    0.0000 H   0  0  0  0  0  0  0  0  0  0  0  0
    0.6276   -5.1852    0.0000 H   0  0  0  0  0  0  0  0  0  0  0  0
    2.4383   -4.9468    0.0000 H   0  0  0  0  0  0  0  0  0  0  0  0
   -1.5584   -3.6937    0.0000 H   0  0  0  0  0  0  0  0  0  0  0  0
   -0.0712   -6.0960    0.0000 H   0  0  0  0  0  0  0  0  0  0  0  0
   -3.7308   -5.3100    0.0000 H   0  0  0  0  0  0  0  0  0  0  0  0
   -2.0608   -6.2742    0.0000 H   0  0  0  0  0  0  0  0  0  0  0  0
   -4.5712   -3.4979    0.0000 H   0  0  0  0  0  0  0  0  0  0  0  0
   -1.7111   -0.8286    0.0000 H   0  0  0  0  0  0  0  0  0  0  0  0
   -3.7828   -1.8615    0.0000 H   0  0  0  0  0  0  0  0  0  0  0  0
    0.9528   -1.3240    0.0000 H   0  0  0  0  0  0  0  0  0  0  0  0
   -3.8002   -2.0107    0.0000 H   0  0  0  0  0  0  0  0  0  0  0  0
   -4.9864   -0.2520    0.0000 H   0  0  0  0  0  0  0  0  0  0  0  0
   -5.0119   -0.6168    0.0000 H   0  0  0  0  0  0  0  0  0  0  0  0
   -7.7498    1.3982    0.0000 H   0  0  0  0  0  0  0  0  0  0  0  0
   -6.8421   -1.2028    0.0000 H   0  0  0  0  0  0  0  0  0  0  0  0
   -8.0634    0.3656    0.0000 H   0  0  0  0  0  0  0  0  0  0  0  0
   -8.0417    0.0005    0.0000 H   0  0  0  0  0  0  0  0  0  0  0  0
   -6.3346    3.3668    0.0000 H   0  0  0  0  0  0  0  0  0  0  0  0
  1  2  2  3
  2  3  1  0
  3  4  1  0
  3  5  1  0
  5  6  2  3
  5  7  1  0
  7  8  1  0
  8  9  1  0
  8 10  1  0
 10 11  1  0
 11 12  1  0
 12 13  1  0
 13 14  1  0
 13 15  1  0
 15 16  1  0
 16 17  1  0
 17 18  1  0
 18 19  1  0
 19 20  1  0
 20 21  1  0
 21 22  1  0
 22 23  1  0
 23 24  1  0
 19 25  1  0
 25 26  1  0
 26 27  1  0
 27 28  1  0
 28 29  1  0
 18 30  1  0
 30 31  1  0
 31 32  1  0
 32 33  1  0
 33 34  1  0
 34 35  1  0
 35 36  1  0
 36 37  1  0
 37 38  1  0
 13 39  1  0
 39 40  1  0
 39 41  1  0
 41 42  1  0
 42 43  1  0
 41 44  1  0
 44 45  1  0
 42  7  1  0
 44 10  1  0
 45 11  1  0
 38 15  1  0
 45 39  1  0
 38 16  1  0
 45 41  1  0
 29 26  1  0
 37 32  1  0
  1 46  1  0
  1 47  1  0
  2 48  1  0
  3 49  1  0
  4 50  1  0
  4 51  1  0
  4 52  1  0
  6 53  1  0
  6 54  1  0
  7 55  1  0
  8 56  1  0
 10 57  1  0
 11 58  1  0
 12 59  1  0
 12 60  1  0
 14 61  1  0
 14 62  1  0
 14 63  1  0
 15 64  1  0
 16 65  1  0
 17 66  1  0
 17 67  1  0
 18 68  1  0
 19 69  1  0
 20 70  1  0
 20 71  1  0
 21 72  1  0
 21 73  1  0
 22 74  1  0
 22 75  1  0
 23 76  1  0
 23 77  1  0
 25 78  1  0
 25 79  1  0
 26 80  1  0
 27 81  1  0
 27 82  1  0
 28 83  1  0
 28 84  1  0
 30 85  1  0
 31 86  1  0
 31 87  1  0
 32 88  1  0
 33 89  1  0
 34 90  1  0
 34 91  1  0
 35 92  1  0
 36 93  1  0
 36 94  1  0
 38 95  1  0
 40 96  1  0
 40 97  1  0
 40 98  1  0
 42 99  1  0
 43100  1  0
 43101  1  0
 43102  1  0
 44103  1  0
M  END
$$$$
