
     RDKit          2D

 42 44  0  0  0  0  0  0  0  0999 V2000
    3.8660    0.0000    0.0000 C   0  0  0  0  0  0  0  0  0  0  0  0
    2.3660    0.0000    0.0000 C   0  0  0  0  0  0  0  0  0  0  0  0
    0.8660    0.0000    0.0000 N   0  0  0  0  0  0  0  0  0  0  0  0
   -0.4330    0.7500    0.0000 C   0  0  0  0  0  0  0  0  0  0  0  0
   -1.6058    1.6852    0.0000 C   0  0  0  0  0  0  0  0  0  0  0  0
   -3.0682    1.3515    0.0000 C   0  0  0  0  0  0  0  0  0  0  0  0
   -3.7190   -0.0000    0.0000 C   0  0  0  0  0  0  0  0  0  0  0  0
   -4.8917    0.9352    0.0000 O   0  0  0  0  0  0  0  0  0  0  0  0
   -3.0682   -1.3515    0.0000 C   0  0  0  0  0  0  0  0  0  0  0  0
   -4.5305   -1.6852    0.0000 C   0  0  0  0  0  0  0  0  0  0  0  0
   -1.6058   -1.6852    0.0000 C   0  0  0  0  0  0  0  0  0  0  0  0
   -0.4330   -0.7500    0.0000 C   0  0  0  0  0  0  0  0  0  0  0  0
    0.4120   -1.9894    0.0000 C   0  0  0  0  0  0  0  0  0  0  0  0
    1.6513   -1.1444    0.0000 C   0  0  0  0  0  0  0  0  0  0  0  0
    2.4963   -2.3837    0.0000 C   0  0  0  0  0  0  0  0  0  0  0  0
    3.3413   -3.6231    0.0000 O   0  0  0  0  0  0  0  0  0  0  0  0
    1.2569   -3.2287    0.0000 C   0  0  0  0  0  0  0  0  0  0  0  0
    5.3660    0.0000    0.0000 H   0  0  0  0  0  0  0  0  0  0  0  0
    3.8660    1.5000    0.0000 H   0  0  0  0  0  0  0  0  0  0  0  0
    4.0489   -1.4888    0.0000 H   0  0  0  0  0  0  0  0  0  0  0  0
    2.2689   -0.7912    0.0000 H   0  0  0  0  0  0  0  0  0  0  0  0
    2.3660    1.5000    0.0000 H   0  0  0  0  0  0  0  0  0  0  0  0
    0.4120    1.9894    0.0000 H   0  0  0  0  0  0  0  0  0  0  0  0
   -0.4330    2.6205    0.0000 H   0  0  0  0  0  0  0  0  0  0  0  0
   -2.0870    3.1059    0.0000 H   0  0  0  0  0  0  0  0  0  0  0  0
   -3.2510    2.8403    0.0000 H   0  0  0  0  0  0  0  0  0  0  0  0
   -4.4063    2.0292    0.0000 H   0  0  0  0  0  0  0  0  0  0  0  0
   -4.9970   -0.7853    0.0000 H   0  0  0  0  0  0  0  0  0  0  0  0
   -6.2880    0.3872    0.0000 H   0  0  0  0  0  0  0  0  0  0  0  0
   -3.2510   -2.8403    0.0000 H   0  0  0  0  0  0  0  0  0  0  0  0
   -5.9929   -2.0190    0.0000 H   0  0  0  0  0  0  0  0  0  0  0  0
   -4.1968   -3.1476    0.0000 H   0  0  0  0  0  0  0  0  0  0  0  0
   -5.0401   -0.2744    0.0000 H   0  0  0  0  0  0  0  0  0  0  0  0
   -2.0870   -3.1059    0.0000 H   0  0  0  0  0  0  0  0  0  0  0  0
   -0.4330   -2.6205    0.0000 H   0  0  0  0  0  0  0  0  0  0  0  0
    1.2661   -0.7563    0.0000 H   0  0  0  0  0  0  0  0  0  0  0  0
    3.0583   -0.6244    0.0000 H   0  0  0  0  0  0  0  0  0  0  0  0
    1.1313    0.2626    0.0000 H   0  0  0  0  0  0  0  0  0  0  0  0
    3.8294   -1.6961    0.0000 H   0  0  0  0  0  0  0  0  0  0  0  0
    4.8371   -3.5110    0.0000 H   0  0  0  0  0  0  0  0  0  0  0  0
    0.0176   -4.0737    0.0000 H   0  0  0  0  0  0  0  0  0  0  0  0
    2.1019   -4.4681    0.0000 H   0  0  0  0  0  0  0  0  0  0  0  0
  1  2  1  0
  2  3  1  0
  3  4  1  0
  4  5  1  0
  5  6  1  0
  6  7  1  0
  7  8  1  0
  7  9  1  0
  9 10  1  0
  9 11  1  0
 11 12  1  0
 12 13  1  0
 13 14  1  0
 14 15  1  0
 15 16  1  0
 15 17  1  0
 12  3  1  0
 17 13  1  0
 12  4  1  0
  1 18  1  0
  1 19  1  0
  1 20  1  0
  2 21  1  0
  2 22  1  0
  4 23  1  0
  5 24  1  0
  5 25  1  0
  6 26  1  0
  6 27  1  0
  7 28  1  0
  8 29  1  0
  9 30  1  0
 10 31  1  0
 10 32  1  0
 10 33  1  0
 11 34  1  0
 11 35  1  0
 13 36  1  0
 14 37  1  0
 14 38  1  0
 15 39  1  0
 16 40  1  0
 17 41  1  0
 17 42  1  0
M  END
$$$$
