
     RDKit          2D

 53 60  0  0  0  0  0  0  0  0999 V2000
   -6.1028    0.6291    0.0000 C   0  0  0  0  0  0  0  0  0  0  0  0
   -6.5284   -0.8093    0.0000 C   0  0  0  0  0  0  0  0  0  0  0  0
   -5.0534   -1.0822    0.0000 C   0  0  0  0  0  0  0  0  0  0  0  0
   -4.8572   -2.5693    0.0000 C   0  0  0  0  0  0  0  0  0  0  0  0
   -4.3561   -3.9831    0.0000 O   0  0  0  0  0  0  0  0  0  0  0  0
   -6.2109   -3.2155    0.0000 C   0  0  0  0  0  0  0  0  0  0  0  0
   -7.6693   -3.5661    0.0000 C   0  0  0  0  0  0  0  0  0  0  0  0
   -7.5773   -5.0633    0.0000 C   0  0  0  0  0  0  0  0  0  0  0  0
   -7.2437   -2.1277    0.0000 C   0  0  0  0  0  0  0  0  0  0  0  0
   -6.3118   -1.7173    0.0000 C   0  0  0  0  0  0  0  0  0  0  0  0
   -4.2949   -1.9464    0.0000 C   0  0  0  0  0  0  0  0  0  0  0  0
   -2.8051   -2.1213    0.0000 C   0  0  0  0  0  0  0  0  0  0  0  0
   -1.5396   -2.9266    0.0000 C   0  0  0  0  0  0  0  0  0  0  0  0
   -0.6258   -4.1161    0.0000 F   0  0  0  0  0  0  0  0  0  0  0  0
   -0.2094   -2.2332    0.0000 C   0  0  0  0  0  0  0  0  0  0  0  0
   -1.6058   -1.6852    0.0000 C   0  0  0  0  0  0  0  0  0  0  0  0
   -3.0682   -1.3515    0.0000 C   0  0  0  0  0  0  0  0  0  0  0  0
   -3.7190    0.0000    0.0000 C   0  0  0  0  0  0  0  0  0  0  0  0
   -3.0682    1.3515    0.0000 C   0  0  0  0  0  0  0  0  0  0  0  0
   -1.6058    1.6852    0.0000 C   0  0  0  0  0  0  0  0  0  0  0  0
   -0.4330    0.7500    0.0000 C   0  0  0  0  0  0  0  0  0  0  0  0
    0.4120    1.9894    0.0000 C   0  0  0  0  0  0  0  0  0  0  0  0
    0.8660    0.0000    0.0000 C   0  0  0  0  0  0  0  0  0  0  0  0
   -0.4330   -0.7500    0.0000 C   0  0  0  0  0  0  0  0  0  0  0  0
   -5.6773    2.0675    0.0000 H   0  0  0  0  0  0  0  0  0  0  0  0
   -7.5412    1.0547    0.0000 H   0  0  0  0  0  0  0  0  0  0  0  0
   -4.6233    0.3820    0.0000 H   0  0  0  0  0  0  0  0  0  0  0  0
   -7.9144   -0.2357    0.0000 H   0  0  0  0  0  0  0  0  0  0  0  0
   -4.2751   -1.2545    0.0000 H   0  0  0  0  0  0  0  0  0  0  0  0
   -4.7548    0.3878    0.0000 H   0  0  0  0  0  0  0  0  0  0  0  0
   -3.3700   -2.7647    0.0000 H   0  0  0  0  0  0  0  0  0  0  0  0
   -5.1835   -5.2342    0.0000 H   0  0  0  0  0  0  0  0  0  0  0  0
   -9.1597   -3.3967    0.0000 H   0  0  0  0  0  0  0  0  0  0  0  0
   -7.4853   -6.5604    0.0000 H   0  0  0  0  0  0  0  0  0  0  0  0
   -9.0745   -5.1553    0.0000 H   0  0  0  0  0  0  0  0  0  0  0  0
   -6.0801   -5.1544    0.0000 H   0  0  0  0  0  0  0  0  0  0  0  0
   -5.9424    0.2787    0.0000 H   0  0  0  0  0  0  0  0  0  0  0  0
   -3.9243   -3.9422    0.0000 H   0  0  0  0  0  0  0  0  0  0  0  0
   -3.6104   -3.3868    0.0000 H   0  0  0  0  0  0  0  0  0  0  0  0
   -2.5524   -4.0330    0.0000 H   0  0  0  0  0  0  0  0  0  0  0  0
    0.7258   -3.4060    0.0000 H   0  0  0  0  0  0  0  0  0  0  0  0
   -2.3816   -2.9690    0.0000 H   0  0  0  0  0  0  0  0  0  0  0  0
   -2.3638   -2.6758    0.0000 H   0  0  0  0  0  0  0  0  0  0  0  0
   -4.4063   -2.0292    0.0000 H   0  0  0  0  0  0  0  0  0  0  0  0
   -4.5305    1.6852    0.0000 H   0  0  0  0  0  0  0  0  0  0  0  0
   -3.2510    2.8403    0.0000 H   0  0  0  0  0  0  0  0  0  0  0  0
   -2.0870    3.1059    0.0000 H   0  0  0  0  0  0  0  0  0  0  0  0
   -0.5558    2.7564    0.0000 H   0  0  0  0  0  0  0  0  0  0  0  0
    1.2569    3.2287    0.0000 H   0  0  0  0  0  0  0  0  0  0  0  0
    1.7451    1.3018    0.0000 H   0  0  0  0  0  0  0  0  0  0  0  0
   -0.7151    2.9791    0.0000 H   0  0  0  0  0  0  0  0  0  0  0  0
    1.9631    1.0230    0.0000 H   0  0  0  0  0  0  0  0  0  0  0  0
    1.8302   -1.1491    0.0000 H   0  0  0  0  0  0  0  0  0  0  0  0
  1  2  1  0
  2  3  1  0
  3  4  1  0
  4  5  1  0
  4  6  1  0
  6  7  1  0
  7  8  1  0
  7  9  1  0
  9 10  1  0
 10 11  1  0
 11 12  1  0
 12 13  1  0
 13 14  1  0
 13 15  1  0
 15 16  1  0
 16 17  1  0
 17 18  1  0
 18 19  1  0
 19 20  1  0
 20 21  1  0
 21 22  1  0
 21 23  1  0
 23 24  1  0
  9  2  1  0
 18 11  1  0
 24 21  1  0
  9  6  1  0
 18 12  1  0
 10  6  1  0
 24 15  1  0
 24 16  1  0
  1 25  1  0
  1 26  1  0
  1 27  1  0
  2 28  1  0
  3 29  1  0
  3 30  1  0
  4 31  1  0
  5 32  1  0
  7 33  1  0
  8 34  1  0
  8 35  1  0
  8 36  1  0
 10 37  1  0
 11 38  1  0
 12 39  1  0
 13 40  1  0
 15 41  1  0
 16 42  1  0
 17 43  1  0
 17 44  1  0
 19 45  1  0
 19 46  1  0
 20 47  1  0
 20 48  1  0
 22 49  1  0
 22 50  1  0
 22 51  1  0
 23 52  1  0
 23 53  1  0
M  END
$$$$
