
     RDKit          2D

 38 39  0  0  0  0  0  0  0  0999 V2000
   -0.8820   -6.2361    0.0000 C   0  0  0  0  0  0  0  0  0  0  0  0
   -1.4062   -4.8307    0.0000 C   0  0  0  0  0  0  0  0  0  0  0  0
   -0.2053   -3.9318    0.0000 C   0  0  0  0  0  0  0  0  0  0  0  0
    0.3188   -2.5264    0.0000 C   0  0  0  0  0  0  0  0  0  0  0  0
   -0.0000   -1.0607    0.0000 C   0  0  0  0  0  0  0  0  0  0  0  0
    1.0607    0.0000    0.0000 C   0  0  0  0  0  0  0  0  0  0  0  0
    0.0000    1.0607    0.0000 C   0  0  0  0  0  0  0  0  0  0  0  0
   -1.0607    0.0000    0.0000 C   0  0  0  0  0  0  0  0  0  0  0  0
   -2.5264    0.3188    0.0000 C   0  0  0  0  0  0  0  0  0  0  0  0
   -3.9318   -0.2053    0.0000 C   0  0  0  0  0  0  0  0  0  0  0  0
   -4.8307   -1.4062    0.0000 C   0  0  0  0  0  0  0  0  0  0  0  0
   -4.9377   -2.9023    0.0000 C   0  0  0  0  0  0  0  0  0  0  0  0
   -4.2189   -4.2189    0.0000 C   0  0  0  0  0  0  0  0  0  0  0  0
   -5.6981   -4.4676    0.0000 N   0  0  0  0  0  0  0  0  0  0  0  0
   -2.9023   -4.9377    0.0000 C   0  0  0  0  0  0  0  0  0  0  0  0
    0.5973   -6.4849    0.0000 H   0  0  0  0  0  0  0  0  0  0  0  0
   -1.8370   -7.3928    0.0000 H   0  0  0  0  0  0  0  0  0  0  0  0
    0.9955   -4.8307    0.0000 H   0  0  0  0  0  0  0  0  0  0  0  0
    1.8150   -2.6334    0.0000 H   0  0  0  0  0  0  0  0  0  0  0  0
    1.3770   -1.6555    0.0000 H   0  0  0  0  0  0  0  0  0  0  0  0
    2.1213    1.0607    0.0000 H   0  0  0  0  0  0  0  0  0  0  0  0
    2.2427   -0.9235    0.0000 H   0  0  0  0  0  0  0  0  0  0  0  0
   -0.9235    2.2427    0.0000 H   0  0  0  0  0  0  0  0  0  0  0  0
    1.0607    2.1213    0.0000 H   0  0  0  0  0  0  0  0  0  0  0  0
   -2.0430   -1.1336    0.0000 H   0  0  0  0  0  0  0  0  0  0  0  0
   -3.2526    1.4569    0.0000 H   0  0  0  0  0  0  0  0  0  0  0  0
   -1.9076    1.6853    0.0000 H   0  0  0  0  0  0  0  0  0  0  0  0
   -5.1580    0.3594    0.0000 H   0  0  0  0  0  0  0  0  0  0  0  0
   -4.1282    1.1303    0.0000 H   0  0  0  0  0  0  0  0  0  0  0  0
   -6.1676   -1.5940    0.0000 H   0  0  0  0  0  0  0  0  0  0  0  0
   -5.7180   -0.3887    0.0000 H   0  0  0  0  0  0  0  0  0  0  0  0
   -5.6007   -3.3449    0.0000 H   0  0  0  0  0  0  0  0  0  0  0  0
   -6.2343   -2.5261    0.0000 H   0  0  0  0  0  0  0  0  0  0  0  0
   -4.6461   -5.6567    0.0000 H   0  0  0  0  0  0  0  0  0  0  0  0
   -6.2223   -5.8730    0.0000 H   0  0  0  0  0  0  0  0  0  0  0  0
   -6.3247   -3.7087    0.0000 H   0  0  0  0  0  0  0  0  0  0  0  0
   -2.3119   -6.3166    0.0000 H   0  0  0  0  0  0  0  0  0  0  0  0
   -3.8810   -6.0745    0.0000 H   0  0  0  0  0  0  0  0  0  0  0  0
  1  2  2  0
  2  3  1  0
  3  4  2  0
  4  5  1  0
  5  6  1  0
  6  7  1  0
  7  8  1  0
  8  9  1  0
  9 10  1  0
 10 11  1  0
 11 12  1  0
 12 13  1  0
 13 14  1  0
 13 15  1  0
 15  2  1  0
  8  5  1  0
  1 16  1  0
  1 17  1  0
  3 18  1  0
  4 19  1  0
  5 20  1  1
  6 21  1  0
  6 22  1  0
  7 23  1  0
  7 24  1  0
  8 25  1  1
  9 26  1  0
  9 27  1  0
 10 28  1  0
 10 29  1  0
 11 30  1  0
 11 31  1  0
 12 32  1  0
 12 33  1  0
 13 34  1  1
 14 35  1  0
 14 36  1  0
 15 37  1  0
 15 38  1  0
M  END
$$$$
