
     RDKit          2D

115120  0  0  0  0  0  0  0  0999 V2000
   -6.8381   -2.8668    0.0000 C   0  0  0  0  0  0  0  0  0  0  0  0
   -5.3593   -3.1181    0.0000 C   0  0  0  0  0  0  0  0  0  0  0  0
   -4.9441   -4.5595    0.0000 C   0  0  0  0  0  0  0  0  0  0  0  0
   -3.5582   -5.1335    0.0000 C   0  0  0  0  0  0  0  0  0  0  0  0
   -2.5587   -6.2520    0.0000 C   0  0  0  0  0  0  0  0  0  0  0  0
   -1.5592   -7.3704    0.0000 C   0  0  0  0  0  0  0  0  0  0  0  0
   -2.2454   -4.4079    0.0000 C   0  0  0  0  0  0  0  0  0  0  0  0
   -0.7478   -4.3238    0.0000 C   0  0  0  0  0  0  0  0  0  0  0  0
   -1.9942   -2.9291    0.0000 C   0  0  0  0  0  0  0  0  0  0  0  0
   -2.9937   -1.8107    0.0000 C   0  0  0  0  0  0  0  0  0  0  0  0
   -4.0543   -0.7500    0.0000 C   0  0  0  0  0  0  0  0  0  0  0  0
   -4.0543    0.7500    0.0000 C   0  0  0  0  0  0  0  0  0  0  0  0
   -2.9937    1.8107    0.0000 C   0  0  0  0  0  0  0  0  0  0  0  0
   -2.6054    3.2595    0.0000 C   0  0  0  0  0  0  0  0  0  0  0  0
   -1.4937    1.8107    0.0000 C   0  0  0  0  0  0  0  0  0  0  0  0
   -0.4330    0.7500    0.0000 C   0  0  0  0  0  0  0  0  0  0  0  0
    0.8660    0.0000    0.0000 C   0  0  0  0  0  0  0  0  0  0  0  0
    1.8302    1.1491    0.0000 C   0  0  0  0  0  0  0  0  0  0  0  0
    3.3074    0.8886    0.0000 C   0  0  0  0  0  0  0  0  0  0  0  0
    1.3172    2.5586    0.0000 C   0  0  0  0  0  0  0  0  0  0  0  0
    0.8041    3.9681    0.0000 C   0  0  0  0  0  0  0  0  0  0  0  0
    0.2911    5.3777    0.0000 C   0  0  0  0  0  0  0  0  0  0  0  0
   -0.4330   -0.7500    0.0000 C   0  0  0  0  0  0  0  0  0  0  0  0
    0.4801   -1.9400    0.0000 C   0  0  0  0  0  0  0  0  0  0  0  0
   -0.8504   -2.6327    0.0000 C   0  0  0  0  0  0  0  0  0  0  0  0
   -0.9158   -4.1312    0.0000 C   0  0  0  0  0  0  0  0  0  0  0  0
    0.3493   -4.9372    0.0000 C   0  0  0  0  0  0  0  0  0  0  0  0
    1.6798   -4.2446    0.0000 C   0  0  0  0  0  0  0  0  0  0  0  0
    1.7452   -2.7460    0.0000 C   0  0  0  0  0  0  0  0  0  0  0  0
    2.3192   -1.3602    0.0000 C   0  0  0  0  0  0  0  0  0  0  0  0
    1.4061   -0.1701    0.0000 C   0  0  0  0  0  0  0  0  0  0  0  0
    0.4930    1.0199    0.0000 C   0  0  0  0  0  0  0  0  0  0  0  0
   -0.9942    0.8241    0.0000 C   0  0  0  0  0  0  0  0  0  0  0  0
   -2.4814    0.6283    0.0000 C   0  0  0  0  0  0  0  0  0  0  0  0
    3.8064   -1.1644    0.0000 C   0  0  0  0  0  0  0  0  0  0  0  0
    5.2936   -0.9686    0.0000 C   0  0  0  0  0  0  0  0  0  0  0  0
    6.7807   -0.7728    0.0000 C   0  0  0  0  0  0  0  0  0  0  0  0
    8.2679   -0.5770    0.0000 C   0  0  0  0  0  0  0  0  0  0  0  0
    9.7551   -0.3812    0.0000 C   0  0  0  0  0  0  0  0  0  0  0  0
    6.5850    0.7144    0.0000 C   0  0  0  0  0  0  0  0  0  0  0  0
    7.7750    1.6275    0.0000 C   0  0  0  0  0  0  0  0  0  0  0  0
    6.3892    2.2015    0.0000 C   0  0  0  0  0  0  0  0  0  0  0  0
    5.1991    1.2884    0.0000 O   0  0  0  0  0  0  0  0  0  0  0  0
   -1.4937   -1.8107    0.0000 C   0  0  0  0  0  0  0  0  0  0  0  0
   -4.4913   -1.8948    0.0000 C   0  0  0  0  0  0  0  0  0  0  0  0
   -7.3599   -1.4605    0.0000 H   0  0  0  0  0  0  0  0  0  0  0  0
   -7.7951   -4.0219    0.0000 H   0  0  0  0  0  0  0  0  0  0  0  0
   -5.3737   -5.9966    0.0000 H   0  0  0  0  0  0  0  0  0  0  0  0
   -6.4417   -4.6436    0.0000 H   0  0  0  0  0  0  0  0  0  0  0  0
   -4.2707   -6.4535    0.0000 H   0  0  0  0  0  0  0  0  0  0  0  0
   -3.6772   -7.2515    0.0000 H   0  0  0  0  0  0  0  0  0  0  0  0
   -1.2316   -5.5528    0.0000 H   0  0  0  0  0  0  0  0  0  0  0  0
   -0.5597   -8.4889    0.0000 H   0  0  0  0  0  0  0  0  0  0  0  0
   -2.6777   -8.3700    0.0000 H   0  0  0  0  0  0  0  0  0  0  0  0
   -0.4407   -6.3709    0.0000 H   0  0  0  0  0  0  0  0  0  0  0  0
   -1.8302   -5.8493    0.0000 H   0  0  0  0  0  0  0  0  0  0  0  0
    0.7499   -4.2397    0.0000 H   0  0  0  0  0  0  0  0  0  0  0  0
   -0.4817   -5.8000    0.0000 H   0  0  0  0  0  0  0  0  0  0  0  0
   -0.8319   -2.8262    0.0000 H   0  0  0  0  0  0  0  0  0  0  0  0
   -0.9835   -1.8207    0.0000 H   0  0  0  0  0  0  0  0  0  0  0  0
   -0.6886   -3.6678    0.0000 H   0  0  0  0  0  0  0  0  0  0  0  0
   -5.5397   -0.5413    0.0000 H   0  0  0  0  0  0  0  0  0  0  0  0
   -5.0964   -1.8290    0.0000 H   0  0  0  0  0  0  0  0  0  0  0  0
   -4.9571    1.9479    0.0000 H   0  0  0  0  0  0  0  0  0  0  0  0
   -5.5397    0.5413    0.0000 H   0  0  0  0  0  0  0  0  0  0  0  0
   -4.1916    2.7134    0.0000 H   0  0  0  0  0  0  0  0  0  0  0  0
   -2.2172    4.7084    0.0000 H   0  0  0  0  0  0  0  0  0  0  0  0
   -4.0543    3.6478    0.0000 H   0  0  0  0  0  0  0  0  0  0  0  0
   -1.1200    3.0508    0.0000 H   0  0  0  0  0  0  0  0  0  0  0  0
   -0.1129    2.3967    0.0000 H   0  0  0  0  0  0  0  0  0  0  0  0
   -1.3368    3.3024    0.0000 H   0  0  0  0  0  0  0  0  0  0  0  0
    0.1650    2.1256    0.0000 H   0  0  0  0  0  0  0  0  0  0  0  0
    2.1780   -0.7271    0.0000 H   0  0  0  0  0  0  0  0  0  0  0  0
    4.2716    2.0377    0.0000 H   0  0  0  0  0  0  0  0  0  0  0  0
    4.2916   -0.2434    0.0000 H   0  0  0  0  0  0  0  0  0  0  0  0
    2.7267    3.0716    0.0000 H   0  0  0  0  0  0  0  0  0  0  0  0
   -0.0924    2.0456    0.0000 H   0  0  0  0  0  0  0  0  0  0  0  0
    2.2137    4.4812    0.0000 H   0  0  0  0  0  0  0  0  0  0  0  0
   -0.5323    3.2871    0.0000 H   0  0  0  0  0  0  0  0  0  0  0  0
   -0.2219    6.7872    0.0000 H   0  0  0  0  0  0  0  0  0  0  0  0
    1.7007    5.8907    0.0000 H   0  0  0  0  0  0  0  0  0  0  0  0
   -1.1184    4.8647    0.0000 H   0  0  0  0  0  0  0  0  0  0  0  0
    1.3512   -0.7188    0.0000 H   0  0  0  0  0  0  0  0  0  0  0  0
   -2.1686   -3.3485    0.0000 H   0  0  0  0  0  0  0  0  0  0  0  0
   -1.6342   -1.3537    0.0000 H   0  0  0  0  0  0  0  0  0  0  0  0
   -1.3166   -5.5767    0.0000 H   0  0  0  0  0  0  0  0  0  0  0  0
   -2.3993   -4.3531    0.0000 H   0  0  0  0  0  0  0  0  0  0  0  0
    1.2624   -6.1272    0.0000 H   0  0  0  0  0  0  0  0  0  0  0  0
   -0.6641   -6.0431    0.0000 H   0  0  0  0  0  0  0  0  0  0  0  0
    3.1670   -4.0488    0.0000 H   0  0  0  0  0  0  0  0  0  0  0  0
    2.1308   -5.6751    0.0000 H   0  0  0  0  0  0  0  0  0  0  0  0
    3.1592   -3.2467    0.0000 H   0  0  0  0  0  0  0  0  0  0  0  0
    0.8938    2.4654    0.0000 H   0  0  0  0  0  0  0  0  0  0  0  0
   -1.3445   -0.6344    0.0000 H   0  0  0  0  0  0  0  0  0  0  0  0
   -1.3698    2.2763    0.0000 H   0  0  0  0  0  0  0  0  0  0  0  0
   -3.9399    0.9786    0.0000 H   0  0  0  0  0  0  0  0  0  0  0  0
   -3.0312    2.0239    0.0000 H   0  0  0  0  0  0  0  0  0  0  0  0
   -2.2856   -0.8588    0.0000 H   0  0  0  0  0  0  0  0  0  0  0  0
    4.1567    0.2942    0.0000 H   0  0  0  0  0  0  0  0  0  0  0  0
    4.1820   -2.6166    0.0000 H   0  0  0  0  0  0  0  0  0  0  0  0
    5.4894   -2.4557    0.0000 H   0  0  0  0  0  0  0  0  0  0  0  0
    4.7437    0.4270    0.0000 H   0  0  0  0  0  0  0  0  0  0  0  0
    6.9765   -2.2600    0.0000 H   0  0  0  0  0  0  0  0  0  0  0  0
    8.4637   -2.0642    0.0000 H   0  0  0  0  0  0  0  0  0  0  0  0
    8.6182    0.8815    0.0000 H   0  0  0  0  0  0  0  0  0  0  0  0
   11.2422   -0.1854    0.0000 H   0  0  0  0  0  0  0  0  0  0  0  0
    9.9509   -1.8684    0.0000 H   0  0  0  0  0  0  0  0  0  0  0  0
    9.7420    1.1187    0.0000 H   0  0  0  0  0  0  0  0  0  0  0  0
    9.0932    0.9119    0.0000 H   0  0  0  0  0  0  0  0  0  0  0  0
    8.5809    2.8926    0.0000 H   0  0  0  0  0  0  0  0  0  0  0  0
    6.1934    3.6887    0.0000 H   0  0  0  0  0  0  0  0  0  0  0  0
   -1.8819   -3.2595    0.0000 H   0  0  0  0  0  0  0  0  0  0  0  0
   -0.2957   -2.7134    0.0000 H   0  0  0  0  0  0  0  0  0  0  0  0
   -5.8771   -1.3207    0.0000 H   0  0  0  0  0  0  0  0  0  0  0  0
   -4.7868   -0.4242    0.0000 H   0  0  0  0  0  0  0  0  0  0  0  0
  1  2  2  3
  2  3  1  0
  3  4  1  0
  4  5  1  0
  5  6  1  0
  4  7  1  0
  7  8  1  0
  7  9  1  0
  9 10  1  0
 10 11  1  0
 11 12  1  0
 12 13  1  0
 13 14  1  0
 13 15  1  0
 15 16  1  0
 16 17  1  0
 17 18  1  0
 18 19  2  3
 18 20  1  0
 20 21  1  0
 21 22  1  0
 17 23  1  0
 23 24  1  0
 24 25  1  0
 25 26  1  0
 26 27  1  0
 27 28  1  0
 28 29  1  0
 29 30  1  0
 30 31  2  0
 31 32  2  0
 32 33  1  0
 33 34  1  0
 30 35  1  0
 35 36  1  0
 36 37  1  0
 37 38  1  0
 38 39  1  0
 37 40  1  0
 40 41  1  0
 41 42  1  0
 42 43  1  0
 23 44  1  0
 10 45  1  0
 45  2  1  0
 44 10  1  0
 23 16  1  0
 29 24  1  0
 42 40  1  0
 43 40  1  0
  1 46  1  0
  1 47  1  0
  3 48  1  0
  3 49  1  0
  4 50  1  0
  5 51  1  0
  5 52  1  0
  6 53  1  0
  6 54  1  0
  6 55  1  0
  7 56  1  0
  8 57  1  0
  8 58  1  0
  8 59  1  0
  9 60  1  0
  9 61  1  0
 11 62  1  0
 11 63  1  0
 12 64  1  0
 12 65  1  0
 13 66  1  0
 14 67  1  0
 14 68  1  0
 14 69  1  0
 15 70  1  0
 15 71  1  0
 16 72  1  0
 17 73  1  0
 19 74  1  0
 19 75  1  0
 20 76  1  0
 20 77  1  0
 21 78  1  0
 21 79  1  0
 22 80  1  0
 22 81  1  0
 22 82  1  0
 24 83  1  0
 25 84  1  0
 25 85  1  0
 26 86  1  0
 26 87  1  0
 27 88  1  0
 27 89  1  0
 28 90  1  0
 28 91  1  0
 29 92  1  0
 32 93  1  0
 33 94  1  0
 33 95  1  0
 34 96  1  0
 34 97  1  0
 34 98  1  0
 35 99  1  0
 35100  1  0
 36101  1  0
 36102  1  0
 37103  1  0
 38104  1  0
 38105  1  0
 39106  1  0
 39107  1  0
 39108  1  0
 41109  1  0
 41110  1  0
 42111  1  0
 44112  1  0
 44113  1  0
 45114  1  0
 45115  1  0
M  END
$$$$
