
     RDKit          2D

 37 38  0  0  0  0  0  0  0  0999 V2000
    2.1213    1.0607    0.0000 C   0  0  0  0  0  0  0  0  0  0  0  0
    1.0607    0.0000    0.0000 C   0  0  0  0  0  0  0  0  0  0  0  0
   -0.0000   -1.0607    0.0000 N   0  0  0  0  0  0  0  0  0  0  0  0
   -1.0607    0.0000    0.0000 C   0  0  0  0  0  0  0  0  0  0  0  0
    0.0000    1.0607    0.0000 C   0  0  0  0  0  0  0  0  0  0  0  0
   -1.0607    2.1213    0.0000 C   0  0  0  0  0  0  0  0  0  0  0  0
   -2.1213    3.1820    0.0000 C   0  0  0  0  0  0  0  0  0  0  0  0
   -3.1820    4.2426    0.0000 C   0  0  0  0  0  0  0  0  0  0  0  0
   -4.2426    5.3033    0.0000 C   0  0  0  0  0  0  0  0  0  0  0  0
   -2.1213    5.3033    0.0000 F   0  0  0  0  0  0  0  0  0  0  0  0
    1.0607    2.1213    0.0000 C   0  0  0  0  0  0  0  0  0  0  0  0
    2.1213    1.0607    0.0000 C   0  0  0  0  0  0  0  0  0  0  0  0
    3.1820    2.1213    0.0000 S   0  0  0  0  0  0  0  0  0  0  0  0
    2.1213    3.1820    0.0000 C   0  0  0  0  0  0  0  0  0  0  0  0
    1.0607    4.2426    0.0000 C   0  0  0  0  0  0  0  0  0  0  0  0
    3.4071    1.8331    0.0000 H   0  0  0  0  0  0  0  0  0  0  0  0
    3.0448   -0.1214    0.0000 H   0  0  0  0  0  0  0  0  0  0  0  0
    1.3488    2.3465    0.0000 H   0  0  0  0  0  0  0  0  0  0  0  0
    2.1213   -1.0607    0.0000 H   0  0  0  0  0  0  0  0  0  0  0  0
   -0.0000   -2.5607    0.0000 H   0  0  0  0  0  0  0  0  0  0  0  0
   -2.1213   -1.0607    0.0000 H   0  0  0  0  0  0  0  0  0  0  0  0
   -2.2427    0.9235    0.0000 H   0  0  0  0  0  0  0  0  0  0  0  0
   -0.1372    3.3034    0.0000 H   0  0  0  0  0  0  0  0  0  0  0  0
   -2.2427    1.1979    0.0000 H   0  0  0  0  0  0  0  0  0  0  0  0
   -3.1820    2.1213    0.0000 H   0  0  0  0  0  0  0  0  0  0  0  0
   -1.0607    4.2426    0.0000 H   0  0  0  0  0  0  0  0  0  0  0  0
   -4.2426    3.1820    0.0000 H   0  0  0  0  0  0  0  0  0  0  0  0
   -5.3033    6.3640    0.0000 H   0  0  0  0  0  0  0  0  0  0  0  0
   -5.3033    4.2426    0.0000 H   0  0  0  0  0  0  0  0  0  0  0  0
   -3.1820    6.3640    0.0000 H   0  0  0  0  0  0  0  0  0  0  0  0
    0.1372    3.3034    0.0000 H   0  0  0  0  0  0  0  0  0  0  0  0
    3.3034    0.1372    0.0000 H   0  0  0  0  0  0  0  0  0  0  0  0
    1.3488   -0.2251    0.0000 H   0  0  0  0  0  0  0  0  0  0  0  0
    3.1820    4.2426    0.0000 H   0  0  0  0  0  0  0  0  0  0  0  0
   -0.0000    5.3033    0.0000 H   0  0  0  0  0  0  0  0  0  0  0  0
    2.2427    5.1661    0.0000 H   0  0  0  0  0  0  0  0  0  0  0  0
    1.9841    5.4247    0.0000 H   0  0  0  0  0  0  0  0  0  0  0  0
  1  2  1  0
  2  3  1  0
  3  4  1  0
  4  5  1  0
  5  6  1  1
  6  7  1  0
  7  8  1  0
  8  9  1  0
  8 10  1  0
  5 11  1  0
 11 12  1  0
 12 13  1  0
 13 14  1  0
 14 15  1  0
  5  2  1  0
 14 11  1  0
  1 16  1  0
  1 17  1  0
  1 18  1  0
  2 19  1  1
  3 20  1  0
  4 21  1  0
  4 22  1  0
  6 23  1  0
  6 24  1  0
  7 25  1  0
  7 26  1  0
  8 27  1  6
  9 28  1  0
  9 29  1  0
  9 30  1  0
 11 31  1  1
 12 32  1  0
 12 33  1  0
 14 34  1  6
 15 35  1  0
 15 36  1  0
 15 37  1  0
M  END
$$$$
