
     RDKit          2D

 52 56  0  0  0  0  0  0  0  0999 V2000
   -3.6874    6.9193    0.0000 C   0  0  0  0  0  0  0  0  0  0  0  0
   -3.9479    5.4421    0.0000 Al  0  0  0  0  0  3  0  0  0  0  0  0
   -2.7988    4.4779    0.0000 C   0  0  0  0  0  0  0  0  0  0  0  0
   -1.6498    5.4421    0.0000 C   0  0  0  0  0  0  0  0  0  0  0  0
   -1.3893    3.9649    0.0000 C   0  0  0  0  0  0  0  0  0  0  0  0
   -1.6498    2.4877    0.0000 C   0  0  0  0  0  0  0  0  0  0  0  0
   -1.9102    1.0105    0.0000 C   0  0  0  0  0  0  0  0  0  0  0  0
   -2.1707   -0.4667    0.0000 C   0  0  0  0  0  0  0  0  0  0  0  0
   -3.3874    1.2709    0.0000 C   0  0  0  0  0  0  0  0  0  0  0  0
   -4.8646    1.5314    0.0000 C   0  0  0  0  0  0  0  0  0  0  0  0
   -6.3419    1.7919    0.0000 C   0  0  0  0  0  0  0  0  0  0  0  0
   -6.6023    0.3147    0.0000 Cl  0  0  0  0  0  0  0  0  0  0  0  0
   -7.8191    2.0524    0.0000 C   0  0  0  0  0  0  0  0  0  0  0  0
   -8.7833    0.9033    0.0000 N   0  0  0  0  0  0  0  0  0  0  0  0
   -0.4330    0.7500    0.0000 C   0  0  0  0  0  0  0  0  0  0  0  0
    0.8660    0.0000    0.0000 C   0  0  0  0  0  0  0  0  0  0  0  0
   -0.4330   -0.7500    0.0000 C   0  0  0  0  0  0  0  0  0  0  0  0
    0.1771   -2.1203    0.0000 C   0  0  0  0  0  0  0  0  0  0  0  0
   -0.9376   -3.1240    0.0000 C   0  0  0  0  0  0  0  0  0  0  0  0
   -2.2367   -2.3740    0.0000 C   0  0  0  0  0  0  0  0  0  0  0  0
   -3.6632   -2.8375    0.0000 C   0  0  0  0  0  0  0  0  0  0  0  0
   -3.3514   -1.3703    0.0000 C   0  0  0  0  0  0  0  0  0  0  0  0
   -1.9248   -0.9068    0.0000 C   0  0  0  0  0  0  0  0  0  0  0  0
   -3.4269    8.3965    0.0000 H   0  0  0  0  0  0  0  0  0  0  0  0
   -5.1646    7.1798    0.0000 H   0  0  0  0  0  0  0  0  0  0  0  0
   -2.1895    6.8409    0.0000 H   0  0  0  0  0  0  0  0  0  0  0  0
   -5.3574    4.9291    0.0000 H   0  0  0  0  0  0  0  0  0  0  0  0
   -3.8409    3.3990    0.0000 H   0  0  0  0  0  0  0  0  0  0  0  0
   -0.2402    5.9551    0.0000 H   0  0  0  0  0  0  0  0  0  0  0  0
   -2.2358    6.8229    0.0000 H   0  0  0  0  0  0  0  0  0  0  0  0
    0.1107    3.9649    0.0000 H   0  0  0  0  0  0  0  0  0  0  0  0
   -0.1518    2.4092    0.0000 H   0  0  0  0  0  0  0  0  0  0  0  0
   -3.1270    2.7482    0.0000 H   0  0  0  0  0  0  0  0  0  0  0  0
   -2.7809   -1.8370    0.0000 H   0  0  0  0  0  0  0  0  0  0  0  0
   -3.6479   -0.2063    0.0000 H   0  0  0  0  0  0  0  0  0  0  0  0
   -0.8004   -1.0769    0.0000 H   0  0  0  0  0  0  0  0  0  0  0  0
   -3.4922    2.7673    0.0000 H   0  0  0  0  0  0  0  0  0  0  0  0
   -3.9976   -0.0993    0.0000 H   0  0  0  0  0  0  0  0  0  0  0  0
   -5.3032    0.0970    0.0000 H   0  0  0  0  0  0  0  0  0  0  0  0
   -4.6042    3.0086    0.0000 H   0  0  0  0  0  0  0  0  0  0  0  0
   -6.0814    3.2691    0.0000 H   0  0  0  0  0  0  0  0  0  0  0  0
   -8.3321    3.4619    0.0000 H   0  0  0  0  0  0  0  0  0  0  0  0
  -10.2605    1.1638    0.0000 H   0  0  0  0  0  0  0  0  0  0  0  0
    0.2480    2.0865    0.0000 H   0  0  0  0  0  0  0  0  0  0  0  0
    1.8302    1.1491    0.0000 H   0  0  0  0  0  0  0  0  0  0  0  0
    1.8302   -1.1491    0.0000 H   0  0  0  0  0  0  0  0  0  0  0  0
    1.6443   -2.4322    0.0000 H   0  0  0  0  0  0  0  0  0  0  0  0
   -0.7808   -4.6158    0.0000 H   0  0  0  0  0  0  0  0  0  0  0  0
   -3.4545   -4.3229    0.0000 H   0  0  0  0  0  0  0  0  0  0  0  0
   -5.1623   -2.7852    0.0000 H   0  0  0  0  0  0  0  0  0  0  0  0
   -4.7518   -0.8329    0.0000 H   0  0  0  0  0  0  0  0  0  0  0  0
   -2.5824    0.4414    0.0000 H   0  0  0  0  0  0  0  0  0  0  0  0
  1  2  1  0
  2  3  1  0
  3  4  1  0
  4  5  1  0
  5  6  1  0
  6  7  1  0
  7  8  1  0
  7  9  1  0
  9 10  1  0
 10 11  1  0
 11 12  1  0
 11 13  1  0
 13 14  2  3
  7 15  1  0
 15 16  1  0
 16 17  1  0
 17 18  1  0
 18 19  2  0
 19 20  1  0
 20 21  1  0
 21 22  1  0
 22 23  1  0
  5  3  1  0
 17 15  1  0
 22 20  1  0
 23 17  1  0
 23 20  1  0
  1 24  1  0
  1 25  1  0
  1 26  1  0
  2 27  1  0
  3 28  1  0
  4 29  1  0
  4 30  1  0
  5 31  1  0
  6 32  1  0
  6 33  1  0
  8 34  1  0
  8 35  1  0
  8 36  1  0
  9 37  1  0
  9 38  1  0
 10 39  1  0
 10 40  1  0
 11 41  1  0
 13 42  1  0
 14 43  1  0
 15 44  1  0
 16 45  1  0
 16 46  1  0
 18 47  1  0
 19 48  1  0
 21 49  1  0
 21 50  1  0
 22 51  1  0
 23 52  1  0
M  END
$$$$
