
     RDKit          2D

 62 61  0  0  0  0  0  0  0  0999 V2000
    9.0933   -6.7500    0.0000 C   0  0  0  0  0  0  0  0  0  0  0  0
    7.7942   -6.0000    0.0000 C   0  0  0  0  0  0  0  0  0  0  0  0
    6.4952   -5.2500    0.0000 C   0  0  0  0  0  0  0  0  0  0  0  0
    5.1962   -4.5000    0.0000 C   0  0  0  0  0  0  0  0  0  0  0  0
    3.8971   -3.7500    0.0000 C   0  0  0  0  0  0  0  0  0  0  0  0
    2.5981   -3.0000    0.0000 C   0  0  0  0  0  0  0  0  0  0  0  0
    1.2990   -2.2500    0.0000 C   0  0  0  0  0  0  0  0  0  0  0  0
   -0.0000   -1.5000    0.0000 O   0  0  0  0  0  0  0  0  0  0  0  0
    0.0000    0.0000    0.0000 C   0  0  0  0  0  0  0  0  0  0  0  0
    1.2990    0.7500    0.0000 C   0  0  0  0  0  0  0  0  0  0  0  0
    1.2990    2.2500    0.0000 C   0  0  0  0  0  0  0  0  0  0  0  0
    2.5981    3.0000    0.0000 C   0  0  0  0  0  0  0  0  0  0  0  0
    2.5981    4.5000    0.0000 C   0  0  0  0  0  0  0  0  0  0  0  0
    2.5981    6.0000    0.0000 C   0  0  0  0  0  0  0  0  0  0  0  0
    4.0981    4.5000    0.0000 C   0  0  0  0  0  0  0  0  0  0  0  0
    5.5981    4.5000    0.0000 C   0  0  0  0  0  0  0  0  0  0  0  0
    7.0981    4.5000    0.0000 C   0  0  0  0  0  0  0  0  0  0  0  0
    8.5981    4.5000    0.0000 N   0  0  0  0  0  0  0  0  0  0  0  0
   -1.2990    0.7500    0.0000 C   0  0  0  0  0  0  0  0  0  0  0  0
   -2.5981    1.5000    0.0000 C   0  0  0  0  0  0  0  0  0  0  0  0
   -3.8971    2.2500    0.0000 C   0  0  0  0  0  0  0  0  0  0  0  0
   -2.0490   -0.5490    0.0000 C   0  0  0  0  0  0  0  0  0  0  0  0
   -2.7990   -1.8481    0.0000 O   0  0  0  0  0  0  0  0  0  0  0  0
   10.3923   -7.5000    0.0000 H   0  0  0  0  0  0  0  0  0  0  0  0
    8.3433   -8.0490    0.0000 H   0  0  0  0  0  0  0  0  0  0  0  0
    9.8433   -5.4510    0.0000 H   0  0  0  0  0  0  0  0  0  0  0  0
    7.0442   -7.2990    0.0000 H   0  0  0  0  0  0  0  0  0  0  0  0
    8.5442   -4.7010    0.0000 H   0  0  0  0  0  0  0  0  0  0  0  0
    7.2452   -3.9510    0.0000 H   0  0  0  0  0  0  0  0  0  0  0  0
    5.7452   -6.5490    0.0000 H   0  0  0  0  0  0  0  0  0  0  0  0
    4.4462   -5.7990    0.0000 H   0  0  0  0  0  0  0  0  0  0  0  0
    5.9462   -3.2010    0.0000 H   0  0  0  0  0  0  0  0  0  0  0  0
    4.6471   -2.4510    0.0000 H   0  0  0  0  0  0  0  0  0  0  0  0
    3.1471   -5.0490    0.0000 H   0  0  0  0  0  0  0  0  0  0  0  0
    3.3481   -1.7010    0.0000 H   0  0  0  0  0  0  0  0  0  0  0  0
    1.8481   -4.2990    0.0000 H   0  0  0  0  0  0  0  0  0  0  0  0
    2.0490   -0.9510    0.0000 H   0  0  0  0  0  0  0  0  0  0  0  0
    0.5490   -3.5490    0.0000 H   0  0  0  0  0  0  0  0  0  0  0  0
    2.5981   -0.0000    0.0000 H   0  0  0  0  0  0  0  0  0  0  0  0
    0.0000    3.0000    0.0000 H   0  0  0  0  0  0  0  0  0  0  0  0
    3.7960    2.0972    0.0000 H   0  0  0  0  0  0  0  0  0  0  0  0
    1.0981    4.5000    0.0000 H   0  0  0  0  0  0  0  0  0  0  0  0
    2.5981    7.5000    0.0000 H   0  0  0  0  0  0  0  0  0  0  0  0
    3.4772    6.1080    0.0000 H   0  0  0  0  0  0  0  0  0  0  0  0
    1.0981    6.0000    0.0000 H   0  0  0  0  0  0  0  0  0  0  0  0
    4.2060    5.3791    0.0000 H   0  0  0  0  0  0  0  0  0  0  0  0
    4.2809    3.0112    0.0000 H   0  0  0  0  0  0  0  0  0  0  0  0
    5.5981    6.0000    0.0000 H   0  0  0  0  0  0  0  0  0  0  0  0
    5.5981    3.0000    0.0000 H   0  0  0  0  0  0  0  0  0  0  0  0
    7.0981    3.0000    0.0000 H   0  0  0  0  0  0  0  0  0  0  0  0
    7.0981    6.0000    0.0000 H   0  0  0  0  0  0  0  0  0  0  0  0
    9.3481    5.7990    0.0000 H   0  0  0  0  0  0  0  0  0  0  0  0
    9.3481    3.2010    0.0000 H   0  0  0  0  0  0  0  0  0  0  0  0
   -0.5490    2.0490    0.0000 H   0  0  0  0  0  0  0  0  0  0  0  0
   -1.8481    2.7990    0.0000 H   0  0  0  0  0  0  0  0  0  0  0  0
   -3.1311    0.7926    0.0000 H   0  0  0  0  0  0  0  0  0  0  0  0
   -5.1962    3.0000    0.0000 H   0  0  0  0  0  0  0  0  0  0  0  0
   -3.1471    3.5490    0.0000 H   0  0  0  0  0  0  0  0  0  0  0  0
   -4.6471    0.9510    0.0000 H   0  0  0  0  0  0  0  0  0  0  0  0
   -2.8644   -0.2030    0.0000 H   0  0  0  0  0  0  0  0  0  0  0  0
   -0.9701   -1.5911    0.0000 H   0  0  0  0  0  0  0  0  0  0  0  0
   -4.2990   -1.8481    0.0000 H   0  0  0  0  0  0  0  0  0  0  0  0
  1  2  1  0
  2  3  1  0
  3  4  1  0
  4  5  1  0
  5  6  1  0
  6  7  1  0
  7  8  1  0
  8  9  1  0
  9 10  2  3
 10 11  1  0
 11 12  2  3
 12 13  1  0
 13 14  1  0
 13 15  1  0
 15 16  1  0
 16 17  1  0
 17 18  1  0
  9 19  1  0
 19 20  1  0
 20 21  1  0
 19 22  1  0
 22 23  1  0
  1 24  1  0
  1 25  1  0
  1 26  1  0
  2 27  1  0
  2 28  1  0
  3 29  1  0
  3 30  1  0
  4 31  1  0
  4 32  1  0
  5 33  1  0
  5 34  1  0
  6 35  1  0
  6 36  1  0
  7 37  1  0
  7 38  1  0
 10 39  1  0
 11 40  1  0
 12 41  1  0
 13 42  1  6
 14 43  1  0
 14 44  1  0
 14 45  1  0
 15 46  1  0
 15 47  1  0
 16 48  1  0
 16 49  1  0
 17 50  1  0
 17 51  1  0
 18 52  1  0
 18 53  1  0
 19 54  1  1
 20 55  1  0
 20 56  1  0
 21 57  1  0
 21 58  1  0
 21 59  1  0
 22 60  1  0
 22 61  1  0
 23 62  1  0
M  END
$$$$
