
     RDKit          2D

 56 56  0  0  0  0  0  0  0  0999 V2000
    4.5774   -1.3340    0.0000 C   0  0  0  0  0  0  0  0  0  0  0  0
    3.6132   -0.1849    0.0000 C   0  0  0  0  0  0  0  0  0  0  0  0
    2.6491    0.9642    0.0000 C   0  0  0  0  0  0  0  0  0  0  0  0
    1.6849    2.1132    0.0000 C   0  0  0  0  0  0  0  0  0  0  0  0
    1.5000    0.0000    0.0000 C   0  0  0  0  0  0  0  0  0  0  0  0
    0.7500   -1.2990    0.0000 C   0  0  0  0  0  0  0  0  0  0  0  0
   -0.7500   -1.2990    0.0000 C   0  0  0  0  0  0  0  0  0  0  0  0
   -1.5000    0.0000    0.0000 C   0  0  0  0  0  0  0  0  0  0  0  0
   -0.7500    1.2990    0.0000 C   0  0  0  0  0  0  0  0  0  0  0  0
    0.7500    1.2990    0.0000 C   0  0  0  0  0  0  0  0  0  0  0  0
    0.4895    2.7762    0.0000 C   0  0  0  0  0  0  0  0  0  0  0  0
    1.9667    3.0367    0.0000 N   0  0  0  0  0  0  0  0  0  0  0  0
    0.2291    4.2535    0.0000 C   0  0  0  0  0  0  0  0  0  0  0  0
   -1.2482    3.9930    0.0000 C   0  0  0  0  0  0  0  0  0  0  0  0
   -2.7254    3.7325    0.0000 C   0  0  0  0  0  0  0  0  0  0  0  0
   -4.2026    3.4720    0.0000 C   0  0  0  0  0  0  0  0  0  0  0  0
   -5.6798    3.2116    0.0000 C   0  0  0  0  0  0  0  0  0  0  0  0
   -4.4631    4.9493    0.0000 C   0  0  0  0  0  0  0  0  0  0  0  0
   -4.7235    6.4265    0.0000 O   0  0  0  0  0  0  0  0  0  0  0  0
   -0.0314    5.7307    0.0000 C   0  0  0  0  0  0  0  0  0  0  0  0
   -1.4410    6.2437    0.0000 N   0  0  0  0  0  0  0  0  0  0  0  0
    1.1176    6.6949    0.0000 O   0  0  0  0  0  0  0  0  0  0  0  0
    5.5416   -2.4830    0.0000 H   0  0  0  0  0  0  0  0  0  0  0  0
    5.7265   -0.3698    0.0000 H   0  0  0  0  0  0  0  0  0  0  0  0
    3.4284   -2.2981    0.0000 H   0  0  0  0  0  0  0  0  0  0  0  0
    2.5903   -1.2819    0.0000 H   0  0  0  0  0  0  0  0  0  0  0  0
    4.7623    0.7793    0.0000 H   0  0  0  0  0  0  0  0  0  0  0  0
    3.9071    1.7811    0.0000 H   0  0  0  0  0  0  0  0  0  0  0  0
    1.0274    3.4615    0.0000 H   0  0  0  0  0  0  0  0  0  0  0  0
    3.0331    2.7707    0.0000 H   0  0  0  0  0  0  0  0  0  0  0  0
    0.9684    1.7638    0.0000 H   0  0  0  0  0  0  0  0  0  0  0  0
    2.5230   -1.0971    0.0000 H   0  0  0  0  0  0  0  0  0  0  0  0
    1.5000   -2.5981    0.0000 H   0  0  0  0  0  0  0  0  0  0  0  0
   -1.5000   -2.5981    0.0000 H   0  0  0  0  0  0  0  0  0  0  0  0
   -2.6491   -0.9642    0.0000 H   0  0  0  0  0  0  0  0  0  0  0  0
   -2.6491    0.9642    0.0000 H   0  0  0  0  0  0  0  0  0  0  0  0
   -2.2116    1.6364    0.0000 H   0  0  0  0  0  0  0  0  0  0  0  0
   -0.8547    2.7954    0.0000 H   0  0  0  0  0  0  0  0  0  0  0  0
    2.0865    1.9801    0.0000 H   0  0  0  0  0  0  0  0  0  0  0  0
   -0.9877    2.5158    0.0000 H   0  0  0  0  0  0  0  0  0  0  0  0
    2.6478    4.3732    0.0000 H   0  0  0  0  0  0  0  0  0  0  0  0
    3.1803    2.1551    0.0000 H   0  0  0  0  0  0  0  0  0  0  0  0
    1.6635    4.6921    0.0000 H   0  0  0  0  0  0  0  0  0  0  0  0
   -1.8583    5.3633    0.0000 H   0  0  0  0  0  0  0  0  0  0  0  0
   -1.3529    2.4966    0.0000 H   0  0  0  0  0  0  0  0  0  0  0  0
   -3.1640    5.1670    0.0000 H   0  0  0  0  0  0  0  0  0  0  0  0
   -2.6469    2.2346    0.0000 H   0  0  0  0  0  0  0  0  0  0  0  0
   -3.9421    1.9948    0.0000 H   0  0  0  0  0  0  0  0  0  0  0  0
   -7.1570    2.9511    0.0000 H   0  0  0  0  0  0  0  0  0  0  0  0
   -5.6013    1.7136    0.0000 H   0  0  0  0  0  0  0  0  0  0  0  0
   -5.2412    1.7771    0.0000 H   0  0  0  0  0  0  0  0  0  0  0  0
   -5.9610    4.8708    0.0000 H   0  0  0  0  0  0  0  0  0  0  0  0
   -5.8975    4.5107    0.0000 H   0  0  0  0  0  0  0  0  0  0  0  0
   -6.1331    6.9395    0.0000 H   0  0  0  0  0  0  0  0  0  0  0  0
   -1.7014    7.7209    0.0000 H   0  0  0  0  0  0  0  0  0  0  0  0
   -2.6990    5.4268    0.0000 H   0  0  0  0  0  0  0  0  0  0  0  0
  1  2  1  0
  2  3  1  0
  3  4  1  0
  3  5  1  0
  5  6  1  0
  6  7  2  0
  7  8  1  0
  8  9  1  0
  9 10  1  0
 10 11  1  0
 11 12  1  0
 11 13  1  0
 13 14  1  0
 14 15  1  0
 15 16  1  0
 16 17  1  0
 16 18  1  0
 18 19  1  0
 13 20  1  0
 20 21  1  0
 20 22  2  0
 10  5  1  0
  1 23  1  0
  1 24  1  0
  1 25  1  0
  2 26  1  0
  2 27  1  0
  3 28  1  6
  4 29  1  0
  4 30  1  0
  4 31  1  0
  5 32  1  1
  6 33  1  0
  7 34  1  0
  8 35  1  0
  8 36  1  0
  9 37  1  0
  9 38  1  0
 10 39  1  6
 11 40  1  6
 12 41  1  0
 12 42  1  0
 13 43  1  1
 14 44  1  0
 14 45  1  0
 15 46  1  0
 15 47  1  0
 16 48  1  6
 17 49  1  0
 17 50  1  0
 17 51  1  0
 18 52  1  0
 18 53  1  0
 19 54  1  0
 21 55  1  0
 21 56  1  0
M  END
$$$$
