
     RDKit          2D

 56 61  0  0  0  0  0  0  0  0999 V2000
  -11.6061  -10.2767    0.0000 C   0  0  0  0  0  0  0  0  0  0  0  0
  -10.1143  -10.1200    0.0000 C   0  0  0  0  0  0  0  0  0  0  0  0
   -9.5042   -8.7496    0.0000 C   0  0  0  0  0  0  0  0  0  0  0  0
   -8.8941   -7.3793    0.0000 C   0  0  0  0  0  0  0  0  0  0  0  0
   -8.2840   -6.0090    0.0000 C   0  0  0  0  0  0  0  0  0  0  0  0
   -9.1657   -4.7955    0.0000 C   0  0  0  0  0  0  0  0  0  0  0  0
   -6.7922   -5.8522    0.0000 C   0  0  0  0  0  0  0  0  0  0  0  0
   -5.3005   -5.6954    0.0000 C   0  0  0  0  0  0  0  0  0  0  0  0
   -5.6123   -4.2282    0.0000 C   0  0  0  0  0  0  0  0  0  0  0  0
   -4.3133   -3.4782    0.0000 C   0  0  0  0  0  0  0  0  0  0  0  0
   -3.1986   -4.4819    0.0000 C   0  0  0  0  0  0  0  0  0  0  0  0
   -1.8995   -5.2319    0.0000 C   0  0  0  0  0  0  0  0  0  0  0  0
   -0.4223   -5.4924    0.0000 C   0  0  0  0  0  0  0  0  0  0  0  0
   -0.9354   -4.0828    0.0000 C   0  0  0  0  0  0  0  0  0  0  0  0
    0.3637   -3.3328    0.0000 C   0  0  0  0  0  0  0  0  0  0  0  0
    1.8595   -3.2207    0.0000 C   0  0  0  0  0  0  0  0  0  0  0  0
    2.6095   -4.5198    0.0000 O   0  0  0  0  0  0  0  0  0  0  0  0
    2.7045   -1.9814    0.0000 O   0  0  0  0  0  0  0  0  0  0  0  0
    2.2623   -0.5480    0.0000 O   0  0  0  0  0  0  0  0  0  0  0  0
    0.8660    0.0000    0.0000 C   0  0  0  0  0  0  0  0  0  0  0  0
   -0.4330    0.7500    0.0000 C   0  0  0  0  0  0  0  0  0  0  0  0
   -1.8293   -1.2980    0.0000 C   0  0  0  0  0  0  0  0  0  0  0  0
   -3.3126   -1.0744    0.0000 C   0  0  0  0  0  0  0  0  0  0  0  0
   -0.6566   -2.2332    0.0000 C   0  0  0  0  0  0  0  0  0  0  0  0
   -0.4330   -0.7500    0.0000 C   0  0  0  0  0  0  0  0  0  0  0  0
   -3.8087   -5.8522    0.0000 C   0  0  0  0  0  0  0  0  0  0  0  0
  -12.2162  -11.6471    0.0000 H   0  0  0  0  0  0  0  0  0  0  0  0
  -12.4878   -9.0632    0.0000 H   0  0  0  0  0  0  0  0  0  0  0  0
   -9.2327  -11.3335    0.0000 H   0  0  0  0  0  0  0  0  0  0  0  0
  -10.8746   -8.1395    0.0000 H   0  0  0  0  0  0  0  0  0  0  0  0
   -8.1339   -9.3597    0.0000 H   0  0  0  0  0  0  0  0  0  0  0  0
  -10.2645   -6.7692    0.0000 H   0  0  0  0  0  0  0  0  0  0  0  0
   -7.5238   -7.9894    0.0000 H   0  0  0  0  0  0  0  0  0  0  0  0
  -10.6575   -4.9523    0.0000 H   0  0  0  0  0  0  0  0  0  0  0  0
   -8.5556   -3.4252    0.0000 H   0  0  0  0  0  0  0  0  0  0  0  0
   -6.9716   -5.0755    0.0000 H   0  0  0  0  0  0  0  0  0  0  0  0
   -6.6355   -7.3440    0.0000 H   0  0  0  0  0  0  0  0  0  0  0  0
   -5.3005   -7.1954    0.0000 H   0  0  0  0  0  0  0  0  0  0  0  0
   -6.2224   -2.8579    0.0000 H   0  0  0  0  0  0  0  0  0  0  0  0
   -6.3948   -4.3803    0.0000 H   0  0  0  0  0  0  0  0  0  0  0  0
   -3.0845   -2.6179    0.0000 H   0  0  0  0  0  0  0  0  0  0  0  0
   -5.1950   -2.2647    0.0000 H   0  0  0  0  0  0  0  0  0  0  0  0
   -2.3169   -3.2684    0.0000 H   0  0  0  0  0  0  0  0  0  0  0  0
   -2.2369   -6.6935    0.0000 H   0  0  0  0  0  0  0  0  0  0  0  0
   -0.4223   -6.9924    0.0000 H   0  0  0  0  0  0  0  0  0  0  0  0
    1.0756   -5.4139    0.0000 H   0  0  0  0  0  0  0  0  0  0  0  0
   -1.8995   -2.9338    0.0000 H   0  0  0  0  0  0  0  0  0  0  0  0
    0.9772   -4.7016    0.0000 H   0  0  0  0  0  0  0  0  0  0  0  0
    1.5169    1.3515    0.0000 H   0  0  0  0  0  0  0  0  0  0  0  0
   -1.1830    2.0490    0.0000 H   0  0  0  0  0  0  0  0  0  0  0  0
   -4.7958   -0.8509    0.0000 H   0  0  0  0  0  0  0  0  0  0  0  0
   -3.0890    0.4088    0.0000 H   0  0  0  0  0  0  0  0  0  0  0  0
   -3.3537   -2.5739    0.0000 H   0  0  0  0  0  0  0  0  0  0  0  0
   -1.6768   -3.3328    0.0000 H   0  0  0  0  0  0  0  0  0  0  0  0
   -4.1205   -7.3194    0.0000 H   0  0  0  0  0  0  0  0  0  0  0  0
   -2.4492   -6.4862    0.0000 H   0  0  0  0  0  0  0  0  0  0  0  0
  1  2  2  3
  2  3  1  0
  3  4  1  0
  4  5  1  0
  5  6  2  3
  5  7  1  0
  7  8  1  0
  8  9  1  0
  9 10  1  0
 10 11  1  0
 11 12  1  0
 12 13  1  0
 13 14  1  0
 14 15  1  0
 15 16  1  0
 16 17  2  0
 16 18  1  0
 18 19  1  0
 19 20  1  0
 20 21  1  0
 21 22  1  0
 22 23  1  0
 22 24  1  0
 24 25  1  0
 11 26  1  0
 26  8  1  0
 14 12  1  0
 24 15  1  0
 25 20  1  0
 25 21  1  0
 25 22  1  0
  1 27  1  0
  1 28  1  0
  2 29  1  0
  3 30  1  0
  3 31  1  0
  4 32  1  0
  4 33  1  0
  6 34  1  0
  6 35  1  0
  7 36  1  0
  7 37  1  0
  8 38  1  0
  9 39  1  0
  9 40  1  0
 10 41  1  0
 10 42  1  0
 11 43  1  0
 12 44  1  0
 13 45  1  0
 13 46  1  0
 14 47  1  0
 15 48  1  0
 20 49  1  0
 21 50  1  0
 23 51  1  0
 23 52  1  0
 23 53  1  0
 24 54  1  0
 26 55  1  0
 26 56  1  0
M  END
$$$$
