
     RDKit          2D

 55 62  0  0  0  0  0  0  0  0999 V2000
    2.7944    2.2981    0.0000 C   0  0  0  0  0  0  0  0  0  0  0  0
    1.8302    1.1491    0.0000 C   0  0  0  0  0  0  0  0  0  0  0  0
    0.8660    0.0000    0.0000 C   0  0  0  0  0  0  0  0  0  0  0  0
   -0.4330    0.7500    0.0000 C   0  0  0  0  0  0  0  0  0  0  0  0
   -1.4937    1.8107    0.0000 C   0  0  0  0  0  0  0  0  0  0  0  0
   -2.9937    1.8107    0.0000 C   0  0  0  0  0  0  0  0  0  0  0  0
   -4.0543    0.7500    0.0000 C   0  0  0  0  0  0  0  0  0  0  0  0
   -5.5032    0.3618    0.0000 C   0  0  0  0  0  0  0  0  0  0  0  0
   -4.0543   -0.7500    0.0000 C   0  0  0  0  0  0  0  0  0  0  0  0
   -5.5032   -1.1382    0.0000 C   0  0  0  0  0  0  0  0  0  0  0  0
   -4.4426   -2.1989    0.0000 C   0  0  0  0  0  0  0  0  0  0  0  0
   -2.9937   -1.8107    0.0000 C   0  0  0  0  0  0  0  0  0  0  0  0
   -1.4937   -1.8107    0.0000 C   0  0  0  0  0  0  0  0  0  0  0  0
   -0.1946   -2.5607    0.0000 C   0  0  0  0  0  0  0  0  0  0  0  0
    0.7695   -3.7097    0.0000 O   0  0  0  0  0  0  0  0  0  0  0  0
   -0.7077   -3.9702    0.0000 C   0  0  0  0  0  0  0  0  0  0  0  0
   -2.1849   -3.7097    0.0000 O   0  0  0  0  0  0  0  0  0  0  0  0
   -0.7077   -5.4702    0.0000 C   0  0  0  0  0  0  0  0  0  0  0  0
   -0.7077   -6.9702    0.0000 O   0  0  0  0  0  0  0  0  0  0  0  0
   -2.0067   -7.7202    0.0000 C   0  0  0  0  0  0  0  0  0  0  0  0
   -3.3057   -6.9702    0.0000 C   0  0  0  0  0  0  0  0  0  0  0  0
   -3.3057   -8.4702    0.0000 C   0  0  0  0  0  0  0  0  0  0  0  0
   -3.3057   -9.9702    0.0000 C   0  0  0  0  0  0  0  0  0  0  0  0
   -2.0067   -9.2202    0.0000 C   0  0  0  0  0  0  0  0  0  0  0  0
   -0.4330   -0.7500    0.0000 C   0  0  0  0  0  0  0  0  0  0  0  0
    3.7586    3.4472    0.0000 H   0  0  0  0  0  0  0  0  0  0  0  0
    1.6453    3.2623    0.0000 H   0  0  0  0  0  0  0  0  0  0  0  0
    3.9435    1.3340    0.0000 H   0  0  0  0  0  0  0  0  0  0  0  0
    2.9793    0.1849    0.0000 H   0  0  0  0  0  0  0  0  0  0  0  0
    1.0845    1.9488    0.0000 H   0  0  0  0  0  0  0  0  0  0  0  0
    1.8302   -1.1491    0.0000 H   0  0  0  0  0  0  0  0  0  0  0  0
    0.1220    1.6922    0.0000 H   0  0  0  0  0  0  0  0  0  0  0  0
   -1.7024    3.2961    0.0000 H   0  0  0  0  0  0  0  0  0  0  0  0
   -0.1946    2.5607    0.0000 H   0  0  0  0  0  0  0  0  0  0  0  0
   -4.1916    2.7134    0.0000 H   0  0  0  0  0  0  0  0  0  0  0  0
   -2.7850    3.2961    0.0000 H   0  0  0  0  0  0  0  0  0  0  0  0
   -4.9571    1.9479    0.0000 H   0  0  0  0  0  0  0  0  0  0  0  0
   -6.9886    0.1531    0.0000 H   0  0  0  0  0  0  0  0  0  0  0  0
   -5.8915    1.8107    0.0000 H   0  0  0  0  0  0  0  0  0  0  0  0
   -5.4894   -0.4353    0.0000 H   0  0  0  0  0  0  0  0  0  0  0  0
   -6.5823   -0.0963    0.0000 H   0  0  0  0  0  0  0  0  0  0  0  0
   -6.7319   -1.9986    0.0000 H   0  0  0  0  0  0  0  0  0  0  0  0
   -4.8308   -3.6478    0.0000 H   0  0  0  0  0  0  0  0  0  0  0  0
   -3.1636   -3.3010    0.0000 H   0  0  0  0  0  0  0  0  0  0  0  0
   -2.2210   -3.1226    0.0000 H   0  0  0  0  0  0  0  0  0  0  0  0
    0.9024   -1.5377    0.0000 H   0  0  0  0  0  0  0  0  0  0  0  0
   -3.0018   -4.9678    0.0000 H   0  0  0  0  0  0  0  0  0  0  0  0
    0.7923   -5.4702    0.0000 H   0  0  0  0  0  0  0  0  0  0  0  0
   -2.1965   -5.2874    0.0000 H   0  0  0  0  0  0  0  0  0  0  0  0
   -2.7927   -5.5607    0.0000 H   0  0  0  0  0  0  0  0  0  0  0  0
   -4.7830   -6.7097    0.0000 H   0  0  0  0  0  0  0  0  0  0  0  0
   -4.7830  -10.2307    0.0000 H   0  0  0  0  0  0  0  0  0  0  0  0
   -2.7927  -11.3797    0.0000 H   0  0  0  0  0  0  0  0  0  0  0  0
   -0.7077   -9.9702    0.0000 H   0  0  0  0  0  0  0  0  0  0  0  0
    0.6184   -1.8198    0.0000 H   0  0  0  0  0  0  0  0  0  0  0  0
  1  2  1  0
  2  3  1  0
  3  4  1  0
  4  5  1  0
  5  6  1  0
  6  7  1  0
  7  8  1  0
  7  9  1  0
  9 10  1  0
 10 11  1  0
 11 12  1  0
 12 13  1  0
 13 14  1  0
 14 15  1  0
 15 16  1  0
 16 17  1  0
 16 18  1  0
 18 19  1  0
 19 20  1  0
 20 21  1  0
 21 22  1  0
 22 23  1  0
 23 24  1  0
 13 25  1  0
 25  3  1  0
 25  4  1  0
 11  9  1  0
 16 14  1  0
 22 20  1  0
 12  9  1  0
 24 20  1  0
 24 22  1  0
  1 26  1  0
  1 27  1  0
  1 28  1  0
  2 29  1  0
  2 30  1  0
  3 31  1  0
  4 32  1  0
  5 33  1  0
  5 34  1  0
  6 35  1  0
  6 36  1  0
  7 37  1  0
  8 38  1  0
  8 39  1  0
  8 40  1  0
 10 41  1  0
 10 42  1  0
 11 43  1  0
 12 44  1  0
 13 45  1  0
 14 46  1  0
 17 47  1  0
 18 48  1  0
 18 49  1  0
 21 50  1  0
 21 51  1  0
 23 52  1  0
 23 53  1  0
 24 54  1  0
 25 55  1  0
M  END
$$$$
