
     RDKit          2D

 33 35  0  0  0  0  0  0  0  0999 V2000
    5.7962   -3.2328    0.0000 C   0  0  0  0  0  0  0  0  0  0  0  0
    4.3473   -2.8446    0.0000 C   0  0  0  0  0  0  0  0  0  0  0  0
    2.8984   -2.4564    0.0000 C   0  0  0  0  0  0  0  0  0  0  0  0
    1.4495   -2.0682    0.0000 C   0  0  0  0  0  0  0  0  0  0  0  0
    0.8156   -3.4276    0.0000 C   0  0  0  0  0  0  0  0  0  0  0  0
   -0.2451   -4.4883    0.0000 O   0  0  0  0  0  0  0  0  0  0  0  0
   -0.0448   -2.1989    0.0000 C   0  0  0  0  0  0  0  0  0  0  0  0
   -0.4330   -0.7500    0.0000 C   0  0  0  0  0  0  0  0  0  0  0  0
   -1.9330   -0.7500    0.0000 C   0  0  0  0  0  0  0  0  0  0  0  0
   -1.9330    0.7500    0.0000 C   0  0  0  0  0  0  0  0  0  0  0  0
   -0.4330    0.7500    0.0000 C   0  0  0  0  0  0  0  0  0  0  0  0
    0.8660    0.0000    0.0000 C   0  0  0  0  0  0  0  0  0  0  0  0
    1.8302    1.1491    0.0000 C   0  0  0  0  0  0  0  0  0  0  0  0
    7.2451   -3.6211    0.0000 H   0  0  0  0  0  0  0  0  0  0  0  0
    5.4079   -4.6817    0.0000 H   0  0  0  0  0  0  0  0  0  0  0  0
    6.1844   -1.7840    0.0000 H   0  0  0  0  0  0  0  0  0  0  0  0
    3.9591   -4.2935    0.0000 H   0  0  0  0  0  0  0  0  0  0  0  0
    4.7355   -1.3957    0.0000 H   0  0  0  0  0  0  0  0  0  0  0  0
    3.2866   -1.0075    0.0000 H   0  0  0  0  0  0  0  0  0  0  0  0
    2.7105   -3.7933    0.0000 H   0  0  0  0  0  0  0  0  0  0  0  0
    1.6153   -1.2884    0.0000 H   0  0  0  0  0  0  0  0  0  0  0  0
    1.8188   -4.3310    0.0000 H   0  0  0  0  0  0  0  0  0  0  0  0
    0.1431   -5.9372    0.0000 H   0  0  0  0  0  0  0  0  0  0  0  0
   -1.3168   -2.9938    0.0000 H   0  0  0  0  0  0  0  0  0  0  0  0
   -3.4330   -0.7500    0.0000 H   0  0  0  0  0  0  0  0  0  0  0  0
   -2.1159   -2.2388    0.0000 H   0  0  0  0  0  0  0  0  0  0  0  0
   -1.9330    2.2500    0.0000 H   0  0  0  0  0  0  0  0  0  0  0  0
   -3.4330    0.7500    0.0000 H   0  0  0  0  0  0  0  0  0  0  0  0
   -0.2243    2.2354    0.0000 H   0  0  0  0  0  0  0  0  0  0  0  0
    1.4490   -0.5436    0.0000 H   0  0  0  0  0  0  0  0  0  0  0  0
    2.7944    2.2981    0.0000 H   0  0  0  0  0  0  0  0  0  0  0  0
    2.9793    0.1849    0.0000 H   0  0  0  0  0  0  0  0  0  0  0  0
    0.8072    2.2461    0.0000 H   0  0  0  0  0  0  0  0  0  0  0  0
  1  2  1  0
  2  3  1  0
  3  4  1  0
  4  5  1  0
  5  6  1  0
  5  7  1  0
  7  8  1  0
  8  9  1  1
  9 10  1  0
 10 11  1  0
 11 12  1  0
 12 13  1  0
  7  4  1  0
 11  8  1  0
 12  8  1  0
  1 14  1  0
  1 15  1  0
  1 16  1  0
  2 17  1  0
  2 18  1  0
  3 19  1  0
  3 20  1  0
  4 21  1  1
  5 22  1  1
  6 23  1  0
  7 24  1  6
  9 25  1  0
  9 26  1  0
 10 27  1  0
 10 28  1  0
 11 29  1  6
 12 30  1  1
 13 31  1  0
 13 32  1  0
 13 33  1  0
M  END
$$$$
