
     RDKit          2D

 66 68  0  0  0  0  0  0  0  0999 V2000
   -3.2321   -3.0000    0.0000 C   0  0  0  0  0  0  0  0  0  0  0  0
   -1.9330   -2.2500    0.0000 C   0  0  0  0  0  0  0  0  0  0  0  0
   -0.6340   -3.0000    0.0000 C   0  0  0  0  0  0  0  0  0  0  0  0
    0.6651   -3.7500    0.0000 C   0  0  0  0  0  0  0  0  0  0  0  0
    1.9641   -4.5000    0.0000 C   0  0  0  0  0  0  0  0  0  0  0  0
    3.2631   -5.2500    0.0000 C   0  0  0  0  0  0  0  0  0  0  0  0
   -1.3840   -4.2990    0.0000 C   0  0  0  0  0  0  0  0  0  0  0  0
   -2.1340   -5.5981    0.0000 C   0  0  0  0  0  0  0  0  0  0  0  0
   -2.8840   -6.8971    0.0000 C   0  0  0  0  0  0  0  0  0  0  0  0
   -3.6340   -8.1962    0.0000 C   0  0  0  0  0  0  0  0  0  0  0  0
   -1.9330   -0.7500    0.0000 C   0  0  0  0  0  0  0  0  0  0  0  0
   -1.9330    0.7500    0.0000 C   0  0  0  0  0  0  0  0  0  0  0  0
   -0.4330    0.7500    0.0000 C   0  0  0  0  0  0  0  0  0  0  0  0
   -0.0448    2.1989    0.0000 C   0  0  0  0  0  0  0  0  0  0  0  0
    0.3434    3.6478    0.0000 C   0  0  0  0  0  0  0  0  0  0  0  0
   -1.1054    4.0360    0.0000 C   0  0  0  0  0  0  0  0  0  0  0  0
   -0.7172    5.4849    0.0000 C   0  0  0  0  0  0  0  0  0  0  0  0
   -0.3290    6.9338    0.0000 C   0  0  0  0  0  0  0  0  0  0  0  0
    0.0592    8.3827    0.0000 C   0  0  0  0  0  0  0  0  0  0  0  0
   -1.0014    9.4433    0.0000 N   0  0  0  0  0  0  0  0  0  0  0  0
    1.5081    8.7709    0.0000 C   0  0  0  0  0  0  0  0  0  0  0  0
    2.9570    9.1591    0.0000 C   0  0  0  0  0  0  0  0  0  0  0  0
    1.1199   10.2198    0.0000 O   0  0  0  0  0  0  0  0  0  0  0  0
    0.7317    5.0967    0.0000 N   0  0  0  0  0  0  0  0  0  0  0  0
    0.8660    0.0000    0.0000 C   0  0  0  0  0  0  0  0  0  0  0  0
   -0.4330   -0.7500    0.0000 C   0  0  0  0  0  0  0  0  0  0  0  0
   -3.3653   -4.0853    0.0000 H   0  0  0  0  0  0  0  0  0  0  0  0
   -4.5311   -2.2500    0.0000 H   0  0  0  0  0  0  0  0  0  0  0  0
    0.0973   -2.0297    0.0000 H   0  0  0  0  0  0  0  0  0  0  0  0
    0.3190   -4.5653    0.0000 H   0  0  0  0  0  0  0  0  0  0  0  0
    1.4151   -2.4510    0.0000 H   0  0  0  0  0  0  0  0  0  0  0  0
    2.7141   -3.2010    0.0000 H   0  0  0  0  0  0  0  0  0  0  0  0
    1.2141   -5.7990    0.0000 H   0  0  0  0  0  0  0  0  0  0  0  0
    4.5622   -6.0000    0.0000 H   0  0  0  0  0  0  0  0  0  0  0  0
    2.5131   -6.5490    0.0000 H   0  0  0  0  0  0  0  0  0  0  0  0
    4.0131   -3.9510    0.0000 H   0  0  0  0  0  0  0  0  0  0  0  0
   -0.6766   -4.8321    0.0000 H   0  0  0  0  0  0  0  0  0  0  0  0
   -2.4351   -3.9977    0.0000 H   0  0  0  0  0  0  0  0  0  0  0  0
   -0.8349   -6.3481    0.0000 H   0  0  0  0  0  0  0  0  0  0  0  0
   -3.5147   -5.0120    0.0000 H   0  0  0  0  0  0  0  0  0  0  0  0
   -4.1830   -6.1471    0.0000 H   0  0  0  0  0  0  0  0  0  0  0  0
   -1.5849   -7.6471    0.0000 H   0  0  0  0  0  0  0  0  0  0  0  0
   -4.3840   -9.4952    0.0000 H   0  0  0  0  0  0  0  0  0  0  0  0
   -2.3349   -8.9462    0.0000 H   0  0  0  0  0  0  0  0  0  0  0  0
   -4.9330   -7.4462    0.0000 H   0  0  0  0  0  0  0  0  0  0  0  0
   -3.4330   -0.7500    0.0000 H   0  0  0  0  0  0  0  0  0  0  0  0
   -3.4330    0.7500    0.0000 H   0  0  0  0  0  0  0  0  0  0  0  0
   -2.2270    1.9289    0.0000 H   0  0  0  0  0  0  0  0  0  0  0  0
    1.4406    1.9902    0.0000 H   0  0  0  0  0  0  0  0  0  0  0  0
   -0.9954    2.4536    0.0000 H   0  0  0  0  0  0  0  0  0  0  0  0
    1.7923    3.2595    0.0000 H   0  0  0  0  0  0  0  0  0  0  0  0
   -2.5543    4.4242    0.0000 H   0  0  0  0  0  0  0  0  0  0  0  0
   -1.5826    3.1753    0.0000 H   0  0  0  0  0  0  0  0  0  0  0  0
   -2.1661    5.8731    0.0000 H   0  0  0  0  0  0  0  0  0  0  0  0
    1.1199    6.5456    0.0000 H   0  0  0  0  0  0  0  0  0  0  0  0
   -1.7779    7.3220    0.0000 H   0  0  0  0  0  0  0  0  0  0  0  0
   -0.6132   10.8922    0.0000 H   0  0  0  0  0  0  0  0  0  0  0  0
    1.8964    7.3220    0.0000 H   0  0  0  0  0  0  0  0  0  0  0  0
    4.4059    9.5474    0.0000 H   0  0  0  0  0  0  0  0  0  0  0  0
    3.3452    7.7102    0.0000 H   0  0  0  0  0  0  0  0  0  0  0  0
    2.7483   10.6445    0.0000 H   0  0  0  0  0  0  0  0  0  0  0  0
    2.0434   11.4018    0.0000 H   0  0  0  0  0  0  0  0  0  0  0  0
    2.0307    5.8467    0.0000 H   0  0  0  0  0  0  0  0  0  0  0  0
    1.9631    1.0230    0.0000 H   0  0  0  0  0  0  0  0  0  0  0  0
    1.8302   -1.1491    0.0000 H   0  0  0  0  0  0  0  0  0  0  0  0
    0.0222   -1.8765    0.0000 H   0  0  0  0  0  0  0  0  0  0  0  0
  1  2  2  3
  2  3  1  0
  3  4  1  0
  4  5  1  0
  5  6  1  0
  3  7  1  0
  7  8  1  0
  8  9  1  0
  9 10  1  0
  2 11  1  0
 11 12  1  0
 12 13  1  0
 13 14  1  0
 14 15  1  0
 15 16  1  0
 16 17  1  0
 17 18  1  0
 18 19  1  0
 19 20  2  3
 19 21  1  0
 21 22  1  0
 21 23  1  0
 17 24  1  0
 13 25  1  0
 25 26  1  0
 26 11  1  0
 26 13  1  0
 24 15  1  0
  1 27  1  0
  1 28  1  0
  3 29  1  0
  4 30  1  0
  4 31  1  0
  5 32  1  0
  5 33  1  0
  6 34  1  0
  6 35  1  0
  6 36  1  0
  7 37  1  0
  7 38  1  0
  8 39  1  0
  8 40  1  0
  9 41  1  0
  9 42  1  0
 10 43  1  0
 10 44  1  0
 10 45  1  0
 11 46  1  0
 12 47  1  0
 12 48  1  0
 14 49  1  0
 14 50  1  0
 15 51  1  0
 16 52  1  0
 16 53  1  0
 17 54  1  0
 18 55  1  0
 18 56  1  0
 20 57  1  0
 21 58  1  0
 22 59  1  0
 22 60  1  0
 22 61  1  0
 23 62  1  0
 24 63  1  0
 25 64  1  0
 25 65  1  0
 26 66  1  0
M  END
$$$$
