
     RDKit          2D

 72 76  0  0  0  0  0  0  0  0999 V2000
   -4.3467   -2.2253    0.0000 C   0  0  0  0  0  0  0  0  0  0  0  0
   -2.8978   -1.8371    0.0000 C   0  0  0  0  0  0  0  0  0  0  0  0
   -1.8371   -2.8978    0.0000 C   0  0  0  0  0  0  0  0  0  0  0  0
   -3.0658   -3.7581    0.0000 C   0  0  0  0  0  0  0  0  0  0  0  0
   -0.3882   -2.5095    0.0000 C   0  0  0  0  0  0  0  0  0  0  0  0
   -0.2575   -4.0038    0.0000 N   0  0  0  0  0  0  0  0  0  0  0  0
   -0.0000   -1.0607    0.0000 C   0  0  0  0  0  0  0  0  0  0  0  0
    1.0607    0.0000    0.0000 O   0  0  0  0  0  0  0  0  0  0  0  0
    0.0000    1.0607    0.0000 C   0  0  0  0  0  0  0  0  0  0  0  0
   -1.0607    0.0000    0.0000 C   0  0  0  0  0  0  0  0  0  0  0  0
   -2.5095   -0.3882    0.0000 C   0  0  0  0  0  0  0  0  0  0  0  0
   -2.6403    1.1061    0.0000 C   0  0  0  0  0  0  0  0  0  0  0  0
   -2.7710    2.6004    0.0000 C   0  0  0  0  0  0  0  0  0  0  0  0
   -4.2653    2.4696    0.0000 C   0  0  0  0  0  0  0  0  0  0  0  0
   -4.3960    3.9639    0.0000 C   0  0  0  0  0  0  0  0  0  0  0  0
   -2.9017    4.0946    0.0000 C   0  0  0  0  0  0  0  0  0  0  0  0
   -3.2137    5.5619    0.0000 Br  0  0  0  0  0  0  0  0  0  0  0  0
   -1.4075    4.2254    0.0000 C   0  0  0  0  0  0  0  0  0  0  0  0
    0.0868    4.3561    0.0000 C   0  0  0  0  0  0  0  0  0  0  0  0
   -1.5382    5.7197    0.0000 C   0  0  0  0  0  0  0  0  0  0  0  0
   -1.6689    7.2140    0.0000 C   0  0  0  0  0  0  0  0  0  0  0  0
   -1.7997    8.7083    0.0000 C   0  0  0  0  0  0  0  0  0  0  0  0
   -3.1591    9.3422    0.0000 C   0  0  0  0  0  0  0  0  0  0  0  0
   -1.9304   10.2025    0.0000 C   0  0  0  0  0  0  0  0  0  0  0  0
   -2.0611   11.6968    0.0000 C   0  0  0  0  0  0  0  0  0  0  0  0
   -0.5709    9.5686    0.0000 C   0  0  0  0  0  0  0  0  0  0  0  0
    0.2894   10.7974    0.0000 O   0  0  0  0  0  0  0  0  0  0  0  0
    1.7837   10.6666    0.0000 C   0  0  0  0  0  0  0  0  0  0  0  0
    3.2780   10.5359    0.0000 C   0  0  0  0  0  0  0  0  0  0  0  0
    4.7723   10.4051    0.0000 C   0  0  0  0  0  0  0  0  0  0  0  0
   -5.4073   -1.1647    0.0000 H   0  0  0  0  0  0  0  0  0  0  0  0
   -4.7349   -3.6742    0.0000 H   0  0  0  0  0  0  0  0  0  0  0  0
   -1.4617   -4.0533    0.0000 H   0  0  0  0  0  0  0  0  0  0  0  0
   -4.2946   -4.6185    0.0000 H   0  0  0  0  0  0  0  0  0  0  0  0
   -2.3617   -5.0826    0.0000 H   0  0  0  0  0  0  0  0  0  0  0  0
   -3.9829   -2.9611    0.0000 H   0  0  0  0  0  0  0  0  0  0  0  0
    1.0790   -2.8215    0.0000 H   0  0  0  0  0  0  0  0  0  0  0  0
    1.1020   -4.6378    0.0000 H   0  0  0  0  0  0  0  0  0  0  0  0
   -1.0546   -4.9209    0.0000 H   0  0  0  0  0  0  0  0  0  0  0  0
    1.3808   -1.6467    0.0000 H   0  0  0  0  0  0  0  0  0  0  0  0
   -0.6732    1.9224    0.0000 H   0  0  0  0  0  0  0  0  0  0  0  0
    1.0607    2.1213    0.0000 H   0  0  0  0  0  0  0  0  0  0  0  0
   -1.4879    1.0066    0.0000 H   0  0  0  0  0  0  0  0  0  0  0  0
   -4.0038   -0.2575    0.0000 H   0  0  0  0  0  0  0  0  0  0  0  0
   -4.1075    0.7942    0.0000 H   0  0  0  0  0  0  0  0  0  0  0  0
   -1.8866    1.3656    0.0000 H   0  0  0  0  0  0  0  0  0  0  0  0
   -1.2767    2.7311    0.0000 H   0  0  0  0  0  0  0  0  0  0  0  0
   -5.7596    2.3389    0.0000 H   0  0  0  0  0  0  0  0  0  0  0  0
   -4.3177    0.9705    0.0000 H   0  0  0  0  0  0  0  0  0  0  0  0
   -4.5268    5.4582    0.0000 H   0  0  0  0  0  0  0  0  0  0  0  0
   -5.8903    3.8332    0.0000 H   0  0  0  0  0  0  0  0  0  0  0  0
   -1.2767    2.7311    0.0000 H   0  0  0  0  0  0  0  0  0  0  0  0
    1.5811    4.4868    0.0000 H   0  0  0  0  0  0  0  0  0  0  0  0
    0.1392    5.8552    0.0000 H   0  0  0  0  0  0  0  0  0  0  0  0
    0.2176    2.8618    0.0000 H   0  0  0  0  0  0  0  0  0  0  0  0
   -0.0710    6.0316    0.0000 H   0  0  0  0  0  0  0  0  0  0  0  0
   -3.0373    5.7721    0.0000 H   0  0  0  0  0  0  0  0  0  0  0  0
   -0.1746    7.3447    0.0000 H   0  0  0  0  0  0  0  0  0  0  0  0
   -3.1632    7.0832    0.0000 H   0  0  0  0  0  0  0  0  0  0  0  0
   -4.0195    8.1135    0.0000 H   0  0  0  0  0  0  0  0  0  0  0  0
   -4.2198   10.4028    0.0000 H   0  0  0  0  0  0  0  0  0  0  0  0
   -2.1919   13.1911    0.0000 H   0  0  0  0  0  0  0  0  0  0  0  0
   -0.5668   11.8276    0.0000 H   0  0  0  0  0  0  0  0  0  0  0  0
   -3.5554   11.5661    0.0000 H   0  0  0  0  0  0  0  0  0  0  0  0
    0.4897    8.5080    0.0000 H   0  0  0  0  0  0  0  0  0  0  0  0
    1.6530    9.1723    0.0000 H   0  0  0  0  0  0  0  0  0  0  0  0
    1.9145   12.1609    0.0000 H   0  0  0  0  0  0  0  0  0  0  0  0
    3.1473    9.0416    0.0000 H   0  0  0  0  0  0  0  0  0  0  0  0
    3.4088   12.0302    0.0000 H   0  0  0  0  0  0  0  0  0  0  0  0
    6.2666   10.2744    0.0000 H   0  0  0  0  0  0  0  0  0  0  0  0
    4.9030   11.8994    0.0000 H   0  0  0  0  0  0  0  0  0  0  0  0
    4.6416    8.9109    0.0000 H   0  0  0  0  0  0  0  0  0  0  0  0
  1  2  2  3
  2  3  1  0
  3  4  1  0
  3  5  1  0
  5  6  1  0
  5  7  1  0
  7  8  1  0
  8  9  1  0
  9 10  1  0
 10 11  1  0
 11 12  1  0
 12 13  1  0
 13 14  1  0
 14 15  1  0
 15 16  1  0
 16 17  1  0
 16 18  1  0
 18 19  1  0
 18 20  1  0
 20 21  1  0
 21 22  1  0
 22 23  1  0
 23 24  1  0
 24 25  1  0
 24 26  1  0
 26 27  1  0
 27 28  1  0
 28 29  1  0
 29 30  1  0
 11  2  1  0
 16 13  1  0
 24 22  1  0
 10  7  1  0
 26 22  1  0
  1 31  1  0
  1 32  1  0
  3 33  1  0
  4 34  1  0
  4 35  1  0
  4 36  1  0
  5 37  1  0
  6 38  1  0
  6 39  1  0
  7 40  1  0
  9 41  1  0
  9 42  1  0
 10 43  1  0
 11 44  1  0
 12 45  1  0
 12 46  1  0
 13 47  1  0
 14 48  1  0
 14 49  1  0
 15 50  1  0
 15 51  1  0
 18 52  1  0
 19 53  1  0
 19 54  1  0
 19 55  1  0
 20 56  1  0
 20 57  1  0
 21 58  1  0
 21 59  1  0
 23 60  1  0
 23 61  1  0
 25 62  1  0
 25 63  1  0
 25 64  1  0
 26 65  1  0
 28 66  1  0
 28 67  1  0
 29 68  1  0
 29 69  1  0
 30 70  1  0
 30 71  1  0
 30 72  1  0
M  END
$$$$
