
     RDKit          2D

 44 47  0  0  0  0  0  0  0  0999 V2000
    4.0586    0.4512    0.0000 C   0  0  0  0  0  0  0  0  0  0  0  0
    2.6491    0.9642    0.0000 C   0  0  0  0  0  0  0  0  0  0  0  0
    1.5000    0.0000    0.0000 C   0  0  0  0  0  0  0  0  0  0  0  0
    0.7500   -1.2990    0.0000 C   0  0  0  0  0  0  0  0  0  0  0  0
   -0.7500   -1.2990    0.0000 C   0  0  0  0  0  0  0  0  0  0  0  0
   -1.5000    0.0000    0.0000 C   0  0  0  0  0  0  0  0  0  0  0  0
   -2.6491   -0.9642    0.0000 C   0  0  0  0  0  0  0  0  0  0  0  0
   -3.7981    0.0000    0.0000 C   0  0  0  0  0  0  0  0  0  0  0  0
   -5.2753    0.2605    0.0000 C   0  0  0  0  0  0  0  0  0  0  0  0
   -5.5358   -1.2167    0.0000 C   0  0  0  0  0  0  0  0  0  0  0  0
   -5.7963   -2.6940    0.0000 C   0  0  0  0  0  0  0  0  0  0  0  0
   -4.0586   -1.4772    0.0000 C   0  0  0  0  0  0  0  0  0  0  0  0
   -0.7500    1.2990    0.0000 C   0  0  0  0  0  0  0  0  0  0  0  0
   -2.1595    1.8121    0.0000 C   0  0  0  0  0  0  0  0  0  0  0  0
   -3.3086    2.7762    0.0000 O   0  0  0  0  0  0  0  0  0  0  0  0
   -1.8991    3.2893    0.0000 C   0  0  0  0  0  0  0  0  0  0  0  0
   -2.1595    4.7665    0.0000 C   0  0  0  0  0  0  0  0  0  0  0  0
    0.7500    1.2990    0.0000 C   0  0  0  0  0  0  0  0  0  0  0  0
    5.2077    1.4153    0.0000 H   0  0  0  0  0  0  0  0  0  0  0  0
    4.3191   -1.0261    0.0000 H   0  0  0  0  0  0  0  0  0  0  0  0
    2.5706    2.4621    0.0000 H   0  0  0  0  0  0  0  0  0  0  0  0
    2.6491   -0.9642    0.0000 H   0  0  0  0  0  0  0  0  0  0  0  0
    2.1595   -1.8121    0.0000 H   0  0  0  0  0  0  0  0  0  0  0  0
    0.4895   -2.7762    0.0000 H   0  0  0  0  0  0  0  0  0  0  0  0
   -0.4895   -2.7762    0.0000 H   0  0  0  0  0  0  0  0  0  0  0  0
   -1.4603   -1.6610    0.0000 H   0  0  0  0  0  0  0  0  0  0  0  0
   -2.6491    0.9642    0.0000 H   0  0  0  0  0  0  0  0  0  0  0  0
   -2.3376   -1.6980    0.0000 H   0  0  0  0  0  0  0  0  0  0  0  0
   -3.1642    1.3595    0.0000 H   0  0  0  0  0  0  0  0  0  0  0  0
   -6.7526    0.5209    0.0000 H   0  0  0  0  0  0  0  0  0  0  0  0
   -5.0149    1.7377    0.0000 H   0  0  0  0  0  0  0  0  0  0  0  0
   -7.0130   -0.9563    0.0000 H   0  0  0  0  0  0  0  0  0  0  0  0
   -6.0568   -4.1712    0.0000 H   0  0  0  0  0  0  0  0  0  0  0  0
   -7.2735   -2.4335    0.0000 H   0  0  0  0  0  0  0  0  0  0  0  0
   -4.3618   -3.1325    0.0000 H   0  0  0  0  0  0  0  0  0  0  0  0
   -3.7467   -2.9444    0.0000 H   0  0  0  0  0  0  0  0  0  0  0  0
   -0.3114    2.7335    0.0000 H   0  0  0  0  0  0  0  0  0  0  0  0
   -2.9095    0.5130    0.0000 H   0  0  0  0  0  0  0  0  0  0  0  0
   -0.4103    3.4721    0.0000 H   0  0  0  0  0  0  0  0  0  0  0  0
   -2.4200    6.2437    0.0000 H   0  0  0  0  0  0  0  0  0  0  0  0
   -0.6823    5.0270    0.0000 H   0  0  0  0  0  0  0  0  0  0  0  0
   -3.6368    4.5060    0.0000 H   0  0  0  0  0  0  0  0  0  0  0  0
    0.4895    2.7762    0.0000 H   0  0  0  0  0  0  0  0  0  0  0  0
    2.0865    1.9801    0.0000 H   0  0  0  0  0  0  0  0  0  0  0  0
  1  2  2  3
  2  3  1  0
  3  4  1  0
  4  5  1  0
  5  6  1  0
  6  7  1  0
  7  8  1  0
  8  9  1  0
  9 10  1  0
 10 11  1  0
 10 12  1  0
  6 13  1  0
 13 14  1  0
 14 15  1  0
 15 16  1  0
 16 17  1  0
 13 18  1  0
 18  3  1  0
 12  7  1  0
 16 14  1  0
 12  8  1  0
  1 19  1  0
  1 20  1  0
  2 21  1  0
  3 22  1  0
  4 23  1  0
  4 24  1  0
  5 25  1  0
  5 26  1  0
  6 27  1  0
  7 28  1  0
  8 29  1  0
  9 30  1  0
  9 31  1  0
 10 32  1  0
 11 33  1  0
 11 34  1  0
 11 35  1  0
 12 36  1  0
 13 37  1  0
 14 38  1  0
 16 39  1  0
 17 40  1  0
 17 41  1  0
 17 42  1  0
 18 43  1  0
 18 44  1  0
M  END
$$$$
