
     RDKit          2D

104111  0  0  0  0  0  0  0  0999 V2000
    4.1767   -3.1362    0.0000 C   0  0  0  0  0  0  0  0  0  0  0  0
    2.6767   -3.1362    0.0000 C   0  0  0  0  0  0  0  0  0  0  0  0
    3.0649   -1.6873    0.0000 C   0  0  0  0  0  0  0  0  0  0  0  0
    2.3149   -0.3882    0.0000 C   0  0  0  0  0  0  0  0  0  0  0  0
    0.8660    0.0000    0.0000 C   0  0  0  0  0  0  0  0  0  0  0  0
   -0.4330    0.7500    0.0000 C   0  0  0  0  0  0  0  0  0  0  0  0
   -2.1203   -2.9489    0.0000 C   0  0  0  0  0  0  0  0  0  0  0  0
   -1.3703   -4.2479    0.0000 C   0  0  0  0  0  0  0  0  0  0  0  0
   -2.6693   -4.9979    0.0000 C   0  0  0  0  0  0  0  0  0  0  0  0
   -3.9684   -5.7479    0.0000 C   0  0  0  0  0  0  0  0  0  0  0  0
   -5.2674   -6.4979    0.0000 C   0  0  0  0  0  0  0  0  0  0  0  0
   -5.2674   -7.9979    0.0000 C   0  0  0  0  0  0  0  0  0  0  0  0
   -3.9684   -8.7479    0.0000 C   0  0  0  0  0  0  0  0  0  0  0  0
   -2.6693   -9.4979    0.0000 C   0  0  0  0  0  0  0  0  0  0  0  0
   -1.3703  -10.2479    0.0000 C   0  0  0  0  0  0  0  0  0  0  0  0
    0.1272  -10.1607    0.0000 C   0  0  0  0  0  0  0  0  0  0  0  0
    1.3304  -11.0564    0.0000 C   0  0  0  0  0  0  0  0  0  0  0  0
    1.6763  -12.5160    0.0000 C   0  0  0  0  0  0  0  0  0  0  0  0
    1.0031  -13.8565    0.0000 C   0  0  0  0  0  0  0  0  0  0  0  0
   -0.3742  -14.4506    0.0000 C   0  0  0  0  0  0  0  0  0  0  0  0
    0.5899  -15.5997    0.0000 C   0  0  0  0  0  0  0  0  0  0  0  0
   -1.1985  -15.7038    0.0000 C   0  0  0  0  0  0  0  0  0  0  0  0
   -2.0228  -16.9570    0.0000 C   0  0  0  0  0  0  0  0  0  0  0  0
   -3.0896  -18.0115    0.0000 S   0  0  0  0  0  0  0  0  0  0  0  0
   -2.4164  -19.3520    0.0000 C   0  0  0  0  0  0  0  0  0  0  0  0
   -0.9335  -19.1259    0.0000 C   0  0  0  0  0  0  0  0  0  0  0  0
    0.2267  -20.0767    0.0000 C   0  0  0  0  0  0  0  0  0  0  0  0
    1.6302  -19.5473    0.0000 C   0  0  0  0  0  0  0  0  0  0  0  0
    1.8734  -18.0671    0.0000 C   0  0  0  0  0  0  0  0  0  0  0  0
    0.7132  -17.1164    0.0000 C   0  0  0  0  0  0  0  0  0  0  0  0
   -0.6902  -17.6458    0.0000 C   0  0  0  0  0  0  0  0  0  0  0  0
   -1.8112  -14.0204    0.0000 C   0  0  0  0  0  0  0  0  0  0  0  0
   -3.2482  -14.4506    0.0000 C   0  0  0  0  0  0  0  0  0  0  0  0
   -4.4566  -13.5619    0.0000 O   0  0  0  0  0  0  0  0  0  0  0  0
   -3.5941  -15.9102    0.0000 O   0  0  0  0  0  0  0  0  0  0  0  0
   -2.6355  -12.7671    0.0000 C   0  0  0  0  0  0  0  0  0  0  0  0
   -2.4613  -11.2773    0.0000 C   0  0  0  0  0  0  0  0  0  0  0  0
   -0.0712   -3.4979    0.0000 C   0  0  0  0  0  0  0  0  0  0  0  0
    1.3776   -3.8862    0.0000 C   0  0  0  0  0  0  0  0  0  0  0  0
   -0.8212   -2.1989    0.0000 C   0  0  0  0  0  0  0  0  0  0  0  0
   -2.0113   -1.2857    0.0000 C   0  0  0  0  0  0  0  0  0  0  0  0
   -3.4418   -0.8347    0.0000 C   0  0  0  0  0  0  0  0  0  0  0  0
   -3.1172   -2.2991    0.0000 C   0  0  0  0  0  0  0  0  0  0  0  0
   -0.4330   -0.7500    0.0000 C   0  0  0  0  0  0  0  0  0  0  0  0
    4.2739   -2.3449    0.0000 H   0  0  0  0  0  0  0  0  0  0  0  0
    4.1767   -4.6362    0.0000 H   0  0  0  0  0  0  0  0  0  0  0  0
    5.6767   -3.1362    0.0000 H   0  0  0  0  0  0  0  0  0  0  0  0
    3.2386   -4.5269    0.0000 H   0  0  0  0  0  0  0  0  0  0  0  0
    3.8367   -1.4877    0.0000 H   0  0  0  0  0  0  0  0  0  0  0  0
    3.2281    0.8018    0.0000 H   0  0  0  0  0  0  0  0  0  0  0  0
    1.4401    1.3858    0.0000 H   0  0  0  0  0  0  0  0  0  0  0  0
   -1.1830    2.0490    0.0000 H   0  0  0  0  0  0  0  0  0  0  0  0
   -3.6201   -2.9228    0.0000 H   0  0  0  0  0  0  0  0  0  0  0  0
   -0.6203   -5.5470    0.0000 H   0  0  0  0  0  0  0  0  0  0  0  0
   -3.4193   -3.6989    0.0000 H   0  0  0  0  0  0  0  0  0  0  0  0
   -1.9193   -6.2970    0.0000 H   0  0  0  0  0  0  0  0  0  0  0  0
   -4.7184   -4.4489    0.0000 H   0  0  0  0  0  0  0  0  0  0  0  0
   -3.0656   -6.9459    0.0000 H   0  0  0  0  0  0  0  0  0  0  0  0
   -6.5664   -5.7479    0.0000 H   0  0  0  0  0  0  0  0  0  0  0  0
   -6.5664   -8.7479    0.0000 H   0  0  0  0  0  0  0  0  0  0  0  0
   -4.7184  -10.0470    0.0000 H   0  0  0  0  0  0  0  0  0  0  0  0
   -3.0656   -7.5500    0.0000 H   0  0  0  0  0  0  0  0  0  0  0  0
   -1.9193   -8.1989    0.0000 H   0  0  0  0  0  0  0  0  0  0  0  0
   -3.7114  -10.5769    0.0000 H   0  0  0  0  0  0  0  0  0  0  0  0
   -1.2049   -8.7571    0.0000 H   0  0  0  0  0  0  0  0  0  0  0  0
   -0.2102   -8.6991    0.0000 H   0  0  0  0  0  0  0  0  0  0  0  0
    1.2122   -9.1250    0.0000 H   0  0  0  0  0  0  0  0  0  0  0  0
    2.0114   -9.7200    0.0000 H   0  0  0  0  0  0  0  0  0  0  0  0
    2.8273  -10.9605    0.0000 H   0  0  0  0  0  0  0  0  0  0  0  0
    3.0571  -11.9300    0.0000 H   0  0  0  0  0  0  0  0  0  0  0  0
    2.8847  -13.4047    0.0000 H   0  0  0  0  0  0  0  0  0  0  0  0
    2.4803  -14.1169    0.0000 H   0  0  0  0  0  0  0  0  0  0  0  0
    1.8564  -15.0901    0.0000 H   0  0  0  0  0  0  0  0  0  0  0  0
   -0.4330  -16.6967    0.0000 H   0  0  0  0  0  0  0  0  0  0  0  0
    1.9382  -14.9422    0.0000 H   0  0  0  0  0  0  0  0  0  0  0  0
    1.5541  -16.7487    0.0000 H   0  0  0  0  0  0  0  0  0  0  0  0
   -0.0551  -16.6747    0.0000 H   0  0  0  0  0  0  0  0  0  0  0  0
   -2.5429  -15.0385    0.0000 H   0  0  0  0  0  0  0  0  0  0  0  0
   -3.3785  -16.3153    0.0000 H   0  0  0  0  0  0  0  0  0  0  0  0
   -3.8198  -19.8814    0.0000 H   0  0  0  0  0  0  0  0  0  0  0  0
   -2.2163  -20.8386    0.0000 H   0  0  0  0  0  0  0  0  0  0  0  0
   -1.3302  -20.5725    0.0000 H   0  0  0  0  0  0  0  0  0  0  0  0
    0.9918  -21.3669    0.0000 H   0  0  0  0  0  0  0  0  0  0  0  0
   -0.7834  -21.1856    0.0000 H   0  0  0  0  0  0  0  0  0  0  0  0
    3.1301  -19.5298    0.0000 H   0  0  0  0  0  0  0  0  0  0  0  0
    1.9078  -21.0214    0.0000 H   0  0  0  0  0  0  0  0  0  0  0  0
    3.2769  -17.5378    0.0000 H   0  0  0  0  0  0  0  0  0  0  0  0
    1.4709  -15.8218    0.0000 H   0  0  0  0  0  0  0  0  0  0  0  0
    0.3642  -18.7126    0.0000 H   0  0  0  0  0  0  0  0  0  0  0  0
   -2.3489  -15.4207    0.0000 H   0  0  0  0  0  0  0  0  0  0  0  0
   -5.0311  -16.3404    0.0000 H   0  0  0  0  0  0  0  0  0  0  0  0
   -3.9475  -13.4943    0.0000 H   0  0  0  0  0  0  0  0  0  0  0  0
   -4.0750  -12.3453    0.0000 H   0  0  0  0  0  0  0  0  0  0  0  0
   -3.9386  -11.5378    0.0000 H   0  0  0  0  0  0  0  0  0  0  0  0
   -3.5703  -10.2672    0.0000 H   0  0  0  0  0  0  0  0  0  0  0  0
   -0.0582   -4.9979    0.0000 H   0  0  0  0  0  0  0  0  0  0  0  0
    0.7916   -5.2669    0.0000 H   0  0  0  0  0  0  0  0  0  0  0  0
    2.3011   -5.0682    0.0000 H   0  0  0  0  0  0  0  0  0  0  0  0
   -1.4860    0.1193    0.0000 H   0  0  0  0  0  0  0  0  0  0  0  0
   -3.2461    0.6525    0.0000 H   0  0  0  0  0  0  0  0  0  0  0  0
   -4.9404   -0.9001    0.0000 H   0  0  0  0  0  0  0  0  0  0  0  0
   -4.5030   -2.8732    0.0000 H   0  0  0  0  0  0  0  0  0  0  0  0
   -2.6413   -3.7216    0.0000 H   0  0  0  0  0  0  0  0  0  0  0  0
   -1.7512   -0.0342    0.0000 H   0  0  0  0  0  0  0  0  0  0  0  0
  1  2  1  0
  2  3  1  0
  3  4  2  0
  4  5  1  0
  5  6  1  0
  6  7  1  0
  7  8  1  0
  8  9  1  0
  9 10  1  0
 10 11  1  0
 11 12  2  3
 12 13  1  0
 13 14  1  0
 14 15  1  0
 15 16  1  0
 16 17  1  0
 17 18  1  0
 18 19  1  0
 19 20  1  0
 20 21  1  1
 20 22  1  0
 22 23  1  0
 23 24  1  0
 24 25  1  0
 25 26  1  0
 26 27  1  0
 27 28  1  0
 28 29  1  0
 29 30  2  0
 30 31  1  0
 20 32  1  0
 32 33  1  0
 33 34  2  0
 33 35  1  0
 32 36  1  0
 36 37  1  0
  8 38  1  0
 38 39  1  0
 38 40  1  0
 40 41  1  6
 41 42  1  0
 42 43  1  0
 40 44  1  0
 39  2  1  0
 43 41  1  0
 44  5  1  0
 44  6  1  0
 40  7  1  0
 37 15  1  0
 31 23  1  0
 31 26  1  0
  1 45  1  0
  1 46  1  0
  1 47  1  0
  2 48  1  1
  3 49  1  0
  4 50  1  0
  5 51  1  6
  6 52  1  6
  7 53  1  6
  8 54  1  6
  9 55  1  0
  9 56  1  0
 10 57  1  0
 10 58  1  0
 11 59  1  0
 12 60  1  0
 13 61  1  0
 13 62  1  0
 14 63  1  0
 14 64  1  0
 15 65  1  1
 16 66  1  0
 16 67  1  0
 17 68  1  0
 17 69  1  0
 18 70  1  0
 18 71  1  0
 19 72  1  0
 19 73  1  0
 21 74  1  0
 21 75  1  0
 21 76  1  0
 22 77  1  0
 22 78  1  0
 23 79  1  1
 25 80  1  0
 25 81  1  0
 26 82  1  6
 27 83  1  0
 27 84  1  0
 28 85  1  0
 28 86  1  0
 29 87  1  0
 30 88  1  0
 31 89  1  6
 32 90  1  1
 35 91  1  0
 36 92  1  0
 36 93  1  0
 37 94  1  0
 37 95  1  0
 38 96  1  6
 39 97  1  0
 39 98  1  0
 41 99  1  0
 42100  1  0
 42101  1  0
 43102  1  0
 43103  1  0
 44104  1  6
M  END
$$$$
