
     RDKit          2D

 45 50  0  0  0  0  0  0  0  0999 V2000
   -8.7965   -3.6756    0.0000 C   0  0  0  0  0  0  0  0  0  0  0  0
   -9.6569   -2.4468    0.0000 C   0  0  0  0  0  0  0  0  0  0  0  0
   -8.1626   -2.3161    0.0000 C   0  0  0  0  0  0  0  0  0  0  0  0
   -6.7137   -2.7043    0.0000 C   0  0  0  0  0  0  0  0  0  0  0  0
   -5.2648   -3.0926    0.0000 C   0  0  0  0  0  0  0  0  0  0  0  0
   -3.8159   -3.4808    0.0000 C   0  0  0  0  0  0  0  0  0  0  0  0
   -2.3216   -3.3500    0.0000 C   0  0  0  0  0  0  0  0  0  0  0  0
   -3.1820   -2.1213    0.0000 C   0  0  0  0  0  0  0  0  0  0  0  0
   -2.1213   -1.0607    0.0000 C   0  0  0  0  0  0  0  0  0  0  0  0
   -1.0607    0.0000    0.0000 C   0  0  0  0  0  0  0  0  0  0  0  0
   -0.0000   -1.0607    0.0000 C   0  0  0  0  0  0  0  0  0  0  0  0
    1.0607    0.0000    0.0000 O   0  0  0  0  0  0  0  0  0  0  0  0
    0.0000    1.0607    0.0000 C   0  0  0  0  0  0  0  0  0  0  0  0
   -0.3607    0.0000    0.0000 C   0  0  0  0  0  0  0  0  0  0  0  0
   -2.1213   -1.0607    0.0000 N   0  0  0  0  0  0  0  0  0  0  0  0
   -3.5702   -0.6724    0.0000 C   0  0  0  0  0  0  0  0  0  0  0  0
   -3.9584   -2.1213    0.0000 C   0  0  0  0  0  0  0  0  0  0  0  0
   -5.4073   -1.7331    0.0000 C   0  0  0  0  0  0  0  0  0  0  0  0
   -5.0191   -0.2842    0.0000 N   0  0  0  0  0  0  0  0  0  0  0  0
   -3.5702   -0.6724    0.0000 N   0  0  0  0  0  0  0  0  0  0  0  0
   -9.8572   -4.7362    0.0000 H   0  0  0  0  0  0  0  0  0  0  0  0
   -7.6818   -4.6793    0.0000 H   0  0  0  0  0  0  0  0  0  0  0  0
  -10.0451   -0.9979    0.0000 H   0  0  0  0  0  0  0  0  0  0  0  0
  -11.0163   -3.0808    0.0000 H   0  0  0  0  0  0  0  0  0  0  0  0
   -8.0318   -0.8218    0.0000 H   0  0  0  0  0  0  0  0  0  0  0  0
   -6.5050   -1.2189    0.0000 H   0  0  0  0  0  0  0  0  0  0  0  0
   -6.9224   -4.1897    0.0000 H   0  0  0  0  0  0  0  0  0  0  0  0
   -5.4217   -1.6008    0.0000 H   0  0  0  0  0  0  0  0  0  0  0  0
   -5.6530   -4.5414    0.0000 H   0  0  0  0  0  0  0  0  0  0  0  0
   -3.9466   -4.9751    0.0000 H   0  0  0  0  0  0  0  0  0  0  0  0
   -1.9334   -4.7989    0.0000 H   0  0  0  0  0  0  0  0  0  0  0  0
   -0.8492   -3.0639    0.0000 H   0  0  0  0  0  0  0  0  0  0  0  0
   -4.2967   -1.1176    0.0000 H   0  0  0  0  0  0  0  0  0  0  0  0
   -1.0607   -2.1213    0.0000 H   0  0  0  0  0  0  0  0  0  0  0  0
   -3.0448    0.1214    0.0000 H   0  0  0  0  0  0  0  0  0  0  0  0
   -1.9841    1.1820    0.0000 H   0  0  0  0  0  0  0  0  0  0  0  0
   -0.0000   -2.5607    0.0000 H   0  0  0  0  0  0  0  0  0  0  0  0
    0.0000    2.5607    0.0000 H   0  0  0  0  0  0  0  0  0  0  0  0
   -2.2427    0.9235    0.0000 H   0  0  0  0  0  0  0  0  0  0  0  0
   -1.3940   -2.3726    0.0000 H   0  0  0  0  0  0  0  0  0  0  0  0
   -3.3615    0.8130    0.0000 H   0  0  0  0  0  0  0  0  0  0  0  0
   -3.5451   -3.5632    0.0000 H   0  0  0  0  0  0  0  0  0  0  0  0
   -6.7981   -1.1711    0.0000 H   0  0  0  0  0  0  0  0  0  0  0  0
   -6.1346   -3.0450    0.0000 H   0  0  0  0  0  0  0  0  0  0  0  0
   -2.2712    0.0776    0.0000 H   0  0  0  0  0  0  0  0  0  0  0  0
  1  2  1  0
  2  3  1  0
  3  4  1  0
  4  5  1  0
  5  6  1  0
  6  7  1  0
  7  8  1  0
  8  9  1  0
  9 10  1  0
 10 11  1  0
 11 12  1  0
 12 13  1  0
 13 14  1  0
 14 15  1  0
 15 16  1  0
 16 17  1  0
 17 18  1  0
 18 19  1  0
 19 20  1  0
  3  1  1  0
  8  6  1  0
 13 10  1  0
 19 16  1  0
 14 11  1  0
 20 17  1  0
  1 21  1  0
  1 22  1  0
  2 23  1  0
  2 24  1  0
  3 25  1  0
  4 26  1  0
  4 27  1  0
  5 28  1  0
  5 29  1  0
  6 30  1  0
  7 31  1  0
  7 32  1  0
  8 33  1  0
  9 34  1  0
  9 35  1  0
 10 36  1  0
 11 37  1  0
 13 38  1  0
 14 39  1  0
 15 40  1  0
 16 41  1  0
 17 42  1  0
 18 43  1  0
 18 44  1  0
 20 45  1  0
M  END
$$$$
