
     RDKit          2D

 33 33  0  0  0  0  0  0  0  0999 V2000
    7.1614    3.5513    0.0000 C   0  0  0  0  0  0  0  0  0  0  0  0
    5.7348    4.0148    0.0000 C   0  0  0  0  0  0  0  0  0  0  0  0
    4.6201    3.0111    0.0000 C   0  0  0  0  0  0  0  0  0  0  0  0
    3.5054    2.0074    0.0000 C   0  0  0  0  0  0  0  0  0  0  0  0
    2.3907    1.0037    0.0000 C   0  0  0  0  0  0  0  0  0  0  0  0
    1.2760    0.0000    0.0000 C   0  0  0  0  0  0  0  0  0  0  0  0
    0.3943    1.2135    0.0000 C   0  0  0  0  0  0  0  0  0  0  0  0
   -1.0323    0.7500    0.0000 C   0  0  0  0  0  0  0  0  0  0  0  0
   -2.5241    0.5932    0.0000 C   0  0  0  0  0  0  0  0  0  0  0  0
   -3.4057    1.8067    0.0000 C   0  0  0  0  0  0  0  0  0  0  0  0
   -1.0323   -0.7500    0.0000 C   0  0  0  0  0  0  0  0  0  0  0  0
    0.3943   -1.2135    0.0000 C   0  0  0  0  0  0  0  0  0  0  0  0
    0.8578   -2.6401    0.0000 C   0  0  0  0  0  0  0  0  0  0  0  0
    8.2761    4.5550    0.0000 H   0  0  0  0  0  0  0  0  0  0  0  0
    7.4733    2.0840    0.0000 H   0  0  0  0  0  0  0  0  0  0  0  0
    5.4230    5.4820    0.0000 H   0  0  0  0  0  0  0  0  0  0  0  0
    5.6238    1.8964    0.0000 H   0  0  0  0  0  0  0  0  0  0  0  0
    3.6164    4.1258    0.0000 H   0  0  0  0  0  0  0  0  0  0  0  0
    2.5017    3.1221    0.0000 H   0  0  0  0  0  0  0  0  0  0  0  0
    4.5091    0.8927    0.0000 H   0  0  0  0  0  0  0  0  0  0  0  0
    1.9335    1.6567    0.0000 H   0  0  0  0  0  0  0  0  0  0  0  0
    3.3944   -0.1110    0.0000 H   0  0  0  0  0  0  0  0  0  0  0  0
    2.3907   -1.0037    0.0000 H   0  0  0  0  0  0  0  0  0  0  0  0
   -0.2158    2.5838    0.0000 H   0  0  0  0  0  0  0  0  0  0  0  0
    1.0309    1.6933    0.0000 H   0  0  0  0  0  0  0  0  0  0  0  0
   -1.3442    2.2172    0.0000 H   0  0  0  0  0  0  0  0  0  0  0  0
   -3.2967   -0.6925    0.0000 H   0  0  0  0  0  0  0  0  0  0  0  0
   -4.8975    1.6499    0.0000 H   0  0  0  0  0  0  0  0  0  0  0  0
   -2.7956    3.1771    0.0000 H   0  0  0  0  0  0  0  0  0  0  0  0
   -1.3442   -2.2172    0.0000 H   0  0  0  0  0  0  0  0  0  0  0  0
   -2.5321   -0.7762    0.0000 H   0  0  0  0  0  0  0  0  0  0  0  0
   -0.1459   -3.7548    0.0000 H   0  0  0  0  0  0  0  0  0  0  0  0
    2.3250   -2.9520    0.0000 H   0  0  0  0  0  0  0  0  0  0  0  0
  1  2  2  3
  2  3  1  0
  3  4  1  0
  4  5  1  0
  5  6  1  0
  6  7  1  0
  7  8  1  0
  8  9  1  0
  9 10  2  3
  8 11  1  0
 11 12  1  0
 12 13  2  3
 12  6  1  0
  1 14  1  0
  1 15  1  0
  2 16  1  0
  3 17  1  0
  3 18  1  0
  4 19  1  0
  4 20  1  0
  5 21  1  0
  5 22  1  0
  6 23  1  1
  7 24  1  0
  7 25  1  0
  8 26  1  6
  9 27  1  0
 10 28  1  0
 10 29  1  0
 11 30  1  0
 11 31  1  0
 13 32  1  0
 13 33  1  0
M  END
$$$$
