
     RDKit          2D

 53 58  0  0  0  0  0  0  0  0999 V2000
    4.7228    4.5963    0.0000 C   0  0  0  0  0  0  0  0  0  0  0  0
    3.7586    3.4472    0.0000 C   0  0  0  0  0  0  0  0  0  0  0  0
    2.7944    2.2981    0.0000 C   0  0  0  0  0  0  0  0  0  0  0  0
    1.8302    1.1491    0.0000 C   0  0  0  0  0  0  0  0  0  0  0  0
    0.9095    2.1364    0.0000 F   0  0  0  0  0  0  0  0  0  0  0  0
    2.9793    0.1849    0.0000 Br  0  0  0  0  0  0  0  0  0  0  0  0
    0.8660    0.0000    0.0000 C   0  0  0  0  0  0  0  0  0  0  0  0
    2.1780   -0.7271    0.0000 F   0  0  0  0  0  0  0  0  0  0  0  0
   -0.4330    0.7500    0.0000 C   0  0  0  0  0  0  0  0  0  0  0  0
   -1.8675    1.1886    0.0000 F   0  0  0  0  0  0  0  0  0  0  0  0
   -0.4330   -0.7500    0.0000 C   0  0  0  0  0  0  0  0  0  0  0  0
   -1.9330   -0.7500    0.0000 N   0  0  0  0  0  0  0  0  0  0  0  0
   -2.6830   -2.0490    0.0000 C   0  0  0  0  0  0  0  0  0  0  0  0
   -3.4330   -3.3481    0.0000 C   0  0  0  0  0  0  0  0  0  0  0  0
   -1.9330   -3.3481    0.0000 N   0  0  0  0  0  0  0  0  0  0  0  0
   -0.4330   -3.3481    0.0000 C   0  0  0  0  0  0  0  0  0  0  0  0
    0.1150   -4.7444    0.0000 C   0  0  0  0  0  0  0  0  0  0  0  0
    0.4488   -6.2068    0.0000 C   0  0  0  0  0  0  0  0  0  0  0  0
    1.5484   -5.1865    0.0000 C   0  0  0  0  0  0  0  0  0  0  0  0
    2.7877   -4.3415    0.0000 C   0  0  0  0  0  0  0  0  0  0  0  0
    2.8998   -2.8457    0.0000 C   0  0  0  0  0  0  0  0  0  0  0  0
    4.3332   -3.2879    0.0000 C   0  0  0  0  0  0  0  0  0  0  0  0
    5.8313   -3.2131    0.0000 C   0  0  0  0  0  0  0  0  0  0  0  0
    5.0175   -1.9531    0.0000 C   0  0  0  0  0  0  0  0  0  0  0  0
    1.8002   -1.8255    0.0000 N   0  0  0  0  0  0  0  0  0  0  0  0
    0.3170   -2.0490    0.0000 C   0  0  0  0  0  0  0  0  0  0  0  0
    1.2755   -0.8952    0.0000 F   0  0  0  0  0  0  0  0  0  0  0  0
    5.6869    5.7453    0.0000 H   0  0  0  0  0  0  0  0  0  0  0  0
    3.5737    5.5604    0.0000 H   0  0  0  0  0  0  0  0  0  0  0  0
    5.8718    3.6321    0.0000 H   0  0  0  0  0  0  0  0  0  0  0  0
    2.6095    4.4114    0.0000 H   0  0  0  0  0  0  0  0  0  0  0  0
    4.9076    2.4830    0.0000 H   0  0  0  0  0  0  0  0  0  0  0  0
    3.9435    1.3340    0.0000 H   0  0  0  0  0  0  0  0  0  0  0  0
    1.6453    3.2623    0.0000 H   0  0  0  0  0  0  0  0  0  0  0  0
   -0.1294    2.0654    0.0000 H   0  0  0  0  0  0  0  0  0  0  0  0
   -2.8358    0.4479    0.0000 H   0  0  0  0  0  0  0  0  0  0  0  0
   -3.9821   -1.2990    0.0000 H   0  0  0  0  0  0  0  0  0  0  0  0
   -4.8426   -2.8350    0.0000 H   0  0  0  0  0  0  0  0  0  0  0  0
   -3.6935   -4.8253    0.0000 H   0  0  0  0  0  0  0  0  0  0  0  0
   -1.3238   -4.3625    0.0000 H   0  0  0  0  0  0  0  0  0  0  0  0
   -1.1169   -5.2966    0.0000 H   0  0  0  0  0  0  0  0  0  0  0  0
   -0.9334   -6.7894    0.0000 H   0  0  0  0  0  0  0  0  0  0  0  0
    1.2626   -7.4668    0.0000 H   0  0  0  0  0  0  0  0  0  0  0  0
    2.4836   -6.3593    0.0000 H   0  0  0  0  0  0  0  0  0  0  0  0
    3.3357   -5.7379    0.0000 H   0  0  0  0  0  0  0  0  0  0  0  0
    3.5846   -4.3197    0.0000 H   0  0  0  0  0  0  0  0  0  0  0  0
    3.4859   -1.4650    0.0000 H   0  0  0  0  0  0  0  0  0  0  0  0
    4.3312   -4.0850    0.0000 H   0  0  0  0  0  0  0  0  0  0  0  0
    6.1651   -4.6755    0.0000 H   0  0  0  0  0  0  0  0  0  0  0  0
    7.2135   -2.6304    0.0000 H   0  0  0  0  0  0  0  0  0  0  0  0
    6.1171   -0.9328    0.0000 H   0  0  0  0  0  0  0  0  0  0  0  0
    3.9411   -0.9084    0.0000 H   0  0  0  0  0  0  0  0  0  0  0  0
    2.4138   -0.4567    0.0000 H   0  0  0  0  0  0  0  0  0  0  0  0
  1  2  1  0
  2  3  1  0
  3  4  1  0
  4  5  1  1
  4  6  1  0
  4  7  1  0
  7  8  1  6
  7  9  1  0
  9 10  1  0
  9 11  1  0
 11 12  1  1
 12 13  1  0
 13 14  1  0
 14 15  1  0
 15 16  1  0
 16 17  1  0
 17 18  1  0
 18 19  1  0
 19 20  1  0
 20 21  1  0
 21 22  1  0
 22 23  1  0
 23 24  1  0
 21 25  1  0
 25 26  1  0
 26 27  1  6
 11  7  1  0
 15 13  1  0
 26 16  1  0
 26 11  1  0
 19 17  1  0
 24 22  1  0
  1 28  1  0
  1 29  1  0
  1 30  1  0
  2 31  1  0
  2 32  1  0
  3 33  1  0
  3 34  1  0
  9 35  1  1
 12 36  1  0
 13 37  1  6
 14 38  1  0
 14 39  1  0
 16 40  1  1
 17 41  1  1
 18 42  1  0
 18 43  1  0
 19 44  1  1
 20 45  1  0
 20 46  1  0
 21 47  1  6
 22 48  1  0
 23 49  1  0
 23 50  1  0
 24 51  1  0
 24 52  1  0
 25 53  1  0
M  END
$$$$
