
     RDKit          2D

 48 51  0  0  0  0  0  0  0  0999 V2000
   -3.1809    0.3882    0.0000 C   0  0  0  0  0  0  0  0  0  0  0  0
   -1.8819    1.1382    0.0000 C   0  0  0  0  0  0  0  0  0  0  0  0
   -1.4937    2.5871    0.0000 C   0  0  0  0  0  0  0  0  0  0  0  0
   -2.9426    2.9753    0.0000 C   0  0  0  0  0  0  0  0  0  0  0  0
   -2.5543    4.4242    0.0000 Cl  0  0  0  0  0  0  0  0  0  0  0  0
   -4.3915    3.3636    0.0000 C   0  0  0  0  0  0  0  0  0  0  0  0
   -5.0254    2.0041    0.0000 C   0  0  0  0  0  0  0  0  0  0  0  0
   -4.2607    4.8579    0.0000 C   0  0  0  0  0  0  0  0  0  0  0  0
   -5.4894    5.7182    0.0000 C   0  0  0  0  0  0  0  0  0  0  0  0
   -4.8555    7.0777    0.0000 C   0  0  0  0  0  0  0  0  0  0  0  0
   -4.2216    8.4372    0.0000 O   0  0  0  0  0  0  0  0  0  0  0  0
   -2.7273    8.5679    0.0000 C   0  0  0  0  0  0  0  0  0  0  0  0
   -6.9383    6.1065    0.0000 C   0  0  0  0  0  0  0  0  0  0  0  0
   -8.3872    6.4947    0.0000 C   0  0  0  0  0  0  0  0  0  0  0  0
   -6.5501    7.5553    0.0000 C   0  0  0  0  0  0  0  0  0  0  0  0
   -5.6202    4.2239    0.0000 C   0  0  0  0  0  0  0  0  0  0  0  0
   -6.9796    3.5900    0.0000 C   0  0  0  0  0  0  0  0  0  0  0  0
   -0.0448    2.1989    0.0000 C   0  0  0  0  0  0  0  0  0  0  0  0
   -0.4330    0.7500    0.0000 C   0  0  0  0  0  0  0  0  0  0  0  0
    0.8660    0.0000    0.0000 C   0  0  0  0  0  0  0  0  0  0  0  0
   -0.4330   -0.7500    0.0000 O   0  0  0  0  0  0  0  0  0  0  0  0
   -3.8176    0.8680    0.0000 H   0  0  0  0  0  0  0  0  0  0  0  0
   -3.1809   -1.1118    0.0000 H   0  0  0  0  0  0  0  0  0  0  0  0
   -1.1054    4.0360    0.0000 H   0  0  0  0  0  0  0  0  0  0  0  0
   -3.1513    1.4899    0.0000 H   0  0  0  0  0  0  0  0  0  0  0  0
   -5.6593    0.6447    0.0000 H   0  0  0  0  0  0  0  0  0  0  0  0
   -6.4520    2.4676    0.0000 H   0  0  0  0  0  0  0  0  0  0  0  0
   -4.3029    1.6672    0.0000 H   0  0  0  0  0  0  0  0  0  0  0  0
   -2.9013    5.4918    0.0000 H   0  0  0  0  0  0  0  0  0  0  0  0
   -6.0212    8.0217    0.0000 H   0  0  0  0  0  0  0  0  0  0  0  0
   -3.4961    6.4438    0.0000 H   0  0  0  0  0  0  0  0  0  0  0  0
   -1.2330    8.6986    0.0000 H   0  0  0  0  0  0  0  0  0  0  0  0
   -2.8580   10.0622    0.0000 H   0  0  0  0  0  0  0  0  0  0  0  0
   -2.5966    7.0736    0.0000 H   0  0  0  0  0  0  0  0  0  0  0  0
   -7.5003    4.7157    0.0000 H   0  0  0  0  0  0  0  0  0  0  0  0
   -9.8361    6.8829    0.0000 H   0  0  0  0  0  0  0  0  0  0  0  0
   -8.7755    5.0458    0.0000 H   0  0  0  0  0  0  0  0  0  0  0  0
   -8.1785    7.9801    0.0000 H   0  0  0  0  0  0  0  0  0  0  0  0
   -6.1619    9.0042    0.0000 H   0  0  0  0  0  0  0  0  0  0  0  0
   -7.9409    8.1173    0.0000 H   0  0  0  0  0  0  0  0  0  0  0  0
   -5.0503    7.5293    0.0000 H   0  0  0  0  0  0  0  0  0  0  0  0
   -8.3391    2.9561    0.0000 H   0  0  0  0  0  0  0  0  0  0  0  0
   -7.7746    4.8621    0.0000 H   0  0  0  0  0  0  0  0  0  0  0  0
   -6.5162    2.1634    0.0000 H   0  0  0  0  0  0  0  0  0  0  0  0
    0.3434    3.6478    0.0000 H   0  0  0  0  0  0  0  0  0  0  0  0
    1.4406    1.9902    0.0000 H   0  0  0  0  0  0  0  0  0  0  0  0
    1.9631    1.0230    0.0000 H   0  0  0  0  0  0  0  0  0  0  0  0
    1.8302   -1.1491    0.0000 H   0  0  0  0  0  0  0  0  0  0  0  0
  1  2  2  3
  2  3  1  0
  3  4  1  0
  4  5  1  0
  4  6  1  0
  6  7  1  0
  6  8  1  0
  8  9  1  0
  9 10  1  0
 10 11  1  0
 11 12  1  0
  9 13  1  0
 13 14  1  0
 13 15  1  0
  9 16  1  0
 16 17  1  0
  3 18  1  0
 18 19  1  0
 19 20  1  0
 20 21  1  0
 19  2  1  0
 16  6  1  0
 21 19  1  0
 16  8  1  0
  1 22  1  0
  1 23  1  0
  3 24  1  0
  4 25  1  0
  7 26  1  0
  7 27  1  0
  7 28  1  0
  8 29  1  0
 10 30  1  0
 10 31  1  0
 12 32  1  0
 12 33  1  0
 12 34  1  0
 13 35  1  0
 14 36  1  0
 14 37  1  0
 14 38  1  0
 15 39  1  0
 15 40  1  0
 15 41  1  0
 17 42  1  0
 17 43  1  0
 17 44  1  0
 18 45  1  0
 18 46  1  0
 20 47  1  0
 20 48  1  0
M  END
$$$$
