
     RDKit          2D

 39 38  0  0  0  0  0  0  0  0999 V2000
   -1.0981   -2.5981    0.0000 C   0  0  0  0  0  0  0  0  0  0  0  0
   -1.8481   -1.2990    0.0000 C   0  0  0  0  0  0  0  0  0  0  0  0
   -2.5981    0.0000    0.0000 C   0  0  0  0  0  0  0  0  0  0  0  0
   -1.2990    0.7500    0.0000 N   0  0  0  0  0  0  0  0  0  0  0  0
   -0.0000   -0.0000    0.0000 C   0  0  0  0  0  0  0  0  0  0  0  0
    0.1080   -0.8791    0.0000 O   0  0  0  0  0  0  0  0  0  0  0  0
    1.2990    0.7500    0.0000 C   0  0  0  0  0  0  0  0  0  0  0  0
    2.5981    1.5000    0.0000 C   0  0  0  0  0  0  0  0  0  0  0  0
    3.8971    2.2500    0.0000 C   0  0  0  0  0  0  0  0  0  0  0  0
    5.1962    3.0000    0.0000 C   0  0  0  0  0  0  0  0  0  0  0  0
    4.6471    0.9510    0.0000 C   0  0  0  0  0  0  0  0  0  0  0  0
   -3.3481    1.2990    0.0000 C   0  0  0  0  0  0  0  0  0  0  0  0
   -4.6471    0.5490    0.0000 O   0  0  0  0  0  0  0  0  0  0  0  0
   -4.0981    2.5981    0.0000 C   0  0  0  0  0  0  0  0  0  0  0  0
   -4.8481    3.8971    0.0000 O   0  0  0  0  0  0  0  0  0  0  0  0
   -2.7990    3.3481    0.0000 O   0  0  0  0  0  0  0  0  0  0  0  0
   -0.3481   -3.8971    0.0000 H   0  0  0  0  0  0  0  0  0  0  0  0
   -2.3971   -3.3481    0.0000 H   0  0  0  0  0  0  0  0  0  0  0  0
    0.0203   -2.1234    0.0000 H   0  0  0  0  0  0  0  0  0  0  0  0
   -0.7969   -0.9977    0.0000 H   0  0  0  0  0  0  0  0  0  0  0  0
   -3.1471   -2.0490    0.0000 H   0  0  0  0  0  0  0  0  0  0  0  0
   -3.8971   -0.7500    0.0000 H   0  0  0  0  0  0  0  0  0  0  0  0
   -1.1162    2.2388    0.0000 H   0  0  0  0  0  0  0  0  0  0  0  0
    2.0490   -0.5490    0.0000 H   0  0  0  0  0  0  0  0  0  0  0  0
    0.5490    2.0490    0.0000 H   0  0  0  0  0  0  0  0  0  0  0  0
    1.8481    2.7990    0.0000 H   0  0  0  0  0  0  0  0  0  0  0  0
    2.9441    0.6847    0.0000 H   0  0  0  0  0  0  0  0  0  0  0  0
    3.1471    3.5490    0.0000 H   0  0  0  0  0  0  0  0  0  0  0  0
    6.4952    3.7500    0.0000 H   0  0  0  0  0  0  0  0  0  0  0  0
    4.4462    4.2990    0.0000 H   0  0  0  0  0  0  0  0  0  0  0  0
    5.7292    2.2926    0.0000 H   0  0  0  0  0  0  0  0  0  0  0  0
    5.3971   -0.3481    0.0000 H   0  0  0  0  0  0  0  0  0  0  0  0
    5.4624    1.2970    0.0000 H   0  0  0  0  0  0  0  0  0  0  0  0
    3.9397    0.4179    0.0000 H   0  0  0  0  0  0  0  0  0  0  0  0
   -2.1501    2.2018    0.0000 H   0  0  0  0  0  0  0  0  0  0  0  0
   -6.0279    1.1351    0.0000 H   0  0  0  0  0  0  0  0  0  0  0  0
   -5.4788    2.0120    0.0000 H   0  0  0  0  0  0  0  0  0  0  0  0
   -4.0981    5.1962    0.0000 H   0  0  0  0  0  0  0  0  0  0  0  0
   -2.7990    4.8481    0.0000 H   0  0  0  0  0  0  0  0  0  0  0  0
  1  2  1  0
  2  3  1  0
  3  4  1  0
  4  5  1  0
  5  6  2  0
  5  7  1  0
  7  8  1  0
  8  9  1  0
  9 10  1  0
  9 11  1  0
  3 12  1  0
 12 13  1  0
 12 14  1  0
 14 15  1  0
 14 16  1  0
  1 17  1  0
  1 18  1  0
  1 19  1  0
  2 20  1  0
  2 21  1  0
  3 22  1  0
  4 23  1  0
  7 24  1  0
  7 25  1  0
  8 26  1  0
  8 27  1  0
  9 28  1  0
 10 29  1  0
 10 30  1  0
 10 31  1  0
 11 32  1  0
 11 33  1  0
 11 34  1  0
 12 35  1  0
 13 36  1  0
 14 37  1  0
 15 38  1  0
 16 39  1  0
M  END
$$$$
