
     RDKit          2D

 36 41  0  0  0  0  0  0  0  0999 V2000
   -3.6733   -8.8445    0.0000 C   0  0  0  0  0  0  0  0  0  0  0  0
   -4.8690   -7.9388    0.0000 C   0  0  0  0  0  0  0  0  0  0  0  0
   -4.6825   -6.4504    0.0000 C   0  0  0  0  0  0  0  0  0  0  0  0
   -6.1158   -6.0083    0.0000 C   0  0  0  0  0  0  0  0  0  0  0  0
   -5.0163   -4.9881    0.0000 C   0  0  0  0  0  0  0  0  0  0  0  0
   -3.6340   -4.4054    0.0000 C   0  0  0  0  0  0  0  0  0  0  0  0
   -3.9678   -2.9430    0.0000 C   0  0  0  0  0  0  0  0  0  0  0  0
   -2.8682   -1.9227    0.0000 N   0  0  0  0  0  0  0  0  0  0  0  0
   -1.9330   -0.7500    0.0000 C   0  0  0  0  0  0  0  0  0  0  0  0
   -1.9330    0.7500    0.0000 C   0  0  0  0  0  0  0  0  0  0  0  0
   -0.4330    0.7500    0.0000 C   0  0  0  0  0  0  0  0  0  0  0  0
    0.8660    0.0000    0.0000 C   0  0  0  0  0  0  0  0  0  0  0  0
   -0.4330   -0.7500    0.0000 C   0  0  0  0  0  0  0  0  0  0  0  0
    0.5022   -1.9227    0.0000 N   0  0  0  0  0  0  0  0  0  0  0  0
    0.1684   -3.3851    0.0000 C   0  0  0  0  0  0  0  0  0  0  0  0
   -1.1830   -4.0360    0.0000 N   0  0  0  0  0  0  0  0  0  0  0  0
   -2.5345   -3.3851    0.0000 C   0  0  0  0  0  0  0  0  0  0  0  0
   -3.8598  -10.3329    0.0000 H   0  0  0  0  0  0  0  0  0  0  0  0
   -2.2911   -8.2619    0.0000 H   0  0  0  0  0  0  0  0  0  0  0  0
   -6.2512   -8.5215    0.0000 H   0  0  0  0  0  0  0  0  0  0  0  0
   -3.1864   -6.5588    0.0000 H   0  0  0  0  0  0  0  0  0  0  0  0
   -7.3115   -5.1026    0.0000 H   0  0  0  0  0  0  0  0  0  0  0  0
   -6.8002   -7.3431    0.0000 H   0  0  0  0  0  0  0  0  0  0  0  0
   -5.8301   -3.7280    0.0000 H   0  0  0  0  0  0  0  0  0  0  0  0
   -2.6727   -5.5568    0.0000 H   0  0  0  0  0  0  0  0  0  0  0  0
   -5.4012   -2.5009    0.0000 H   0  0  0  0  0  0  0  0  0  0  0  0
   -3.3488   -0.2546    0.0000 H   0  0  0  0  0  0  0  0  0  0  0  0
   -1.9330    2.2500    0.0000 H   0  0  0  0  0  0  0  0  0  0  0  0
   -3.4330    0.7500    0.0000 H   0  0  0  0  0  0  0  0  0  0  0  0
   -0.0448    2.1989    0.0000 H   0  0  0  0  0  0  0  0  0  0  0  0
    1.8302    1.1491    0.0000 H   0  0  0  0  0  0  0  0  0  0  0  0
    1.7546   -0.8286    0.0000 H   0  0  0  0  0  0  0  0  0  0  0  0
    1.7109   -1.7988    0.0000 H   0  0  0  0  0  0  0  0  0  0  0  0
    1.6684   -3.3851    0.0000 H   0  0  0  0  0  0  0  0  0  0  0  0
    0.5022   -4.8475    0.0000 H   0  0  0  0  0  0  0  0  0  0  0  0
   -1.1830   -5.5360    0.0000 H   0  0  0  0  0  0  0  0  0  0  0  0
  1  2  2  3
  2  3  1  0
  3  4  1  0
  4  5  1  0
  5  6  1  0
  6  7  1  0
  7  8  1  0
  8  9  1  0
  9 10  1  0
 10 11  1  0
 11 12  1  0
 12 13  1  0
 13 14  1  0
 14 15  1  0
 15 16  1  0
 16 17  1  0
  5  3  1  0
 17  6  1  0
 17  7  1  0
 17  8  1  0
 13  9  1  0
 13 11  1  0
  1 18  1  0
  1 19  1  0
  2 20  1  0
  3 21  1  0
  4 22  1  0
  4 23  1  0
  5 24  1  0
  6 25  1  0
  7 26  1  0
  9 27  1  0
 10 28  1  0
 10 29  1  0
 11 30  1  0
 12 31  1  0
 12 32  1  0
 14 33  1  0
 15 34  1  0
 15 35  1  0
 16 36  1  0
M  END
$$$$
