
     RDKit          2D

 28 28  0  0  0  0  0  0  0  0999 V2000
    2.7944    2.2981    0.0000 C   0  0  0  0  0  0  0  0  0  0  0  0
    1.8302    1.1491    0.0000 C   0  0  0  0  0  0  0  0  0  0  0  0
    0.6811    2.1132    0.0000 S   0  0  0  0  0  0  0  0  0  0  0  0
    0.9416    3.5905    0.0000 C   0  0  0  0  0  0  0  0  0  0  0  0
    1.2021    5.0677    0.0000 N   0  0  0  0  0  0  0  0  0  0  0  0
    0.0530    6.0319    0.0000 C   0  0  0  0  0  0  0  0  0  0  0  0
   -1.0960    6.9960    0.0000 C   0  0  0  0  0  0  0  0  0  0  0  0
   -2.2451    7.9602    0.0000 O   0  0  0  0  0  0  0  0  0  0  0  0
    0.8660    0.0000    0.0000 C   0  0  0  0  0  0  0  0  0  0  0  0
   -0.4330    0.7500    0.0000 C   0  0  0  0  0  0  0  0  0  0  0  0
   -0.4330   -0.7500    0.0000 C   0  0  0  0  0  0  0  0  0  0  0  0
    3.7586    3.4472    0.0000 H   0  0  0  0  0  0  0  0  0  0  0  0
    3.9435    1.3340    0.0000 H   0  0  0  0  0  0  0  0  0  0  0  0
    2.4080    2.9954    0.0000 H   0  0  0  0  0  0  0  0  0  0  0  0
    2.9793    0.1849    0.0000 H   0  0  0  0  0  0  0  0  0  0  0  0
    1.7377    3.5488    0.0000 H   0  0  0  0  0  0  0  0  0  0  0  0
   -0.5356    3.8509    0.0000 H   0  0  0  0  0  0  0  0  0  0  0  0
    2.6116    5.5807    0.0000 H   0  0  0  0  0  0  0  0  0  0  0  0
   -0.9112    4.8828    0.0000 H   0  0  0  0  0  0  0  0  0  0  0  0
    1.0172    7.1809    0.0000 H   0  0  0  0  0  0  0  0  0  0  0  0
   -2.0602    5.8470    0.0000 H   0  0  0  0  0  0  0  0  0  0  0  0
   -0.1319    8.1451    0.0000 H   0  0  0  0  0  0  0  0  0  0  0  0
   -1.9846    9.4374    0.0000 H   0  0  0  0  0  0  0  0  0  0  0  0
    1.8302   -1.1491    0.0000 H   0  0  0  0  0  0  0  0  0  0  0  0
   -1.9102    1.0105    0.0000 H   0  0  0  0  0  0  0  0  0  0  0  0
   -0.2763    2.2418    0.0000 H   0  0  0  0  0  0  0  0  0  0  0  0
    0.0800   -2.1595    0.0000 H   0  0  0  0  0  0  0  0  0  0  0  0
   -1.9102   -1.0105    0.0000 H   0  0  0  0  0  0  0  0  0  0  0  0
  1  2  1  0
  2  3  1  0
  3  4  1  0
  4  5  1  0
  5  6  1  0
  6  7  1  0
  7  8  1  0
  2  9  1  0
  9 10  1  0
 10 11  1  0
 11  9  1  0
  1 12  1  0
  1 13  1  0
  1 14  1  0
  2 15  1  0
  4 16  1  0
  4 17  1  0
  5 18  1  0
  6 19  1  0
  6 20  1  0
  7 21  1  0
  7 22  1  0
  8 23  1  0
  9 24  1  0
 10 25  1  0
 10 26  1  0
 11 27  1  0
 11 28  1  0
M  END
$$$$
