
     RDKit          3D

 29 35  0  0  0  0  0  0  0  0999 V2000
   13.2804  -14.0554  -14.1439 C   0  0  0  0  0  0  0  0  0  0  0  0
   10.7288  -14.4662  -13.4721 C   0  0  0  0  0  0  0  0  0  0  0  0
   10.0865  -14.7737  -14.8148 C   0  0  0  0  0  0  0  0  0  0  0  0
   10.1368  -16.2284  -15.2535 C   0  0  0  0  0  0  0  0  0  0  0  0
    9.3299  -16.4833  -16.5693 C   0  0  0  0  0  0  0  0  0  0  0  0
   12.0602  -15.0195  -13.9679 C   0  0  0  0  0  0  0  0  0  0  0  0
   11.4081  -15.3773  -15.3111 C   0  0  0  0  0  0  0  0  0  0  0  0
   13.3835  -12.8279  -13.2076 C   0  0  0  0  0  0  0  0  0  0  0  0
   10.1965  -16.3384  -17.7639 N   0  0  0  0  0  0  0  0  0  0  0  0
   11.7868  -11.4518  -14.8470 C   0  0  0  0  0  0  0  0  0  0  0  0
   11.9871  -10.0805  -15.4596 C   0  0  0  0  0  0  0  0  0  0  0  0
   13.0325   -9.7553  -16.2461 C   0  0  0  0  0  0  0  0  0  0  0  0
    9.3977  -16.1071  -18.9972 C   0  0  0  0  0  0  0  0  0  0  0  0
   14.1102  -10.7434  -16.6212 C   0  0  0  0  0  0  0  0  0  0  0  0
   12.5019  -11.5769  -13.4774 C   0  0  0  0  0  0  0  0  0  0  0  0
    8.6474  -17.8803  -16.6280 C   0  0  0  0  0  0  0  0  0  0  0  0
    8.4827  -18.6554  -15.3358 C   0  0  0  0  0  0  0  0  0  0  0  0
    9.0599  -20.0572  -15.3842 C   0  0  0  0  0  0  0  0  0  0  0  0
   15.1140  -10.1555  -17.6277 C   0  0  0  0  0  0  0  0  0  0  0  0
   15.9532   -8.9624  -17.2098 C   0  0  0  0  0  0  0  0  0  0  0  0
   16.8911   -8.1672  -18.0574 C   0  0  0  0  0  0  0  0  0  0  0  0
   18.1414   -7.9310  -17.6073 C   0  0  0  0  0  0  0  0  0  0  0  0
   10.1043  -14.9948  -18.3797 C   0  0  0  0  0  0  0  0  0  0  0  0
   18.6334   -8.3320  -16.2145 C   0  0  0  0  0  0  0  0  0  0  0  0
   17.8821   -7.6524  -15.2396 O   0  0  0  0  0  0  0  0  0  0  0  0
   18.6399   -9.8684  -15.9415 C   0  0  0  0  0  0  0  0  0  0  0  0
    9.5388  -19.0771  -16.4133 C   0  0  0  0  0  0  0  0  0  0  0  0
   17.2468  -10.5433  -15.8725 C   0  0  0  0  0  0  0  0  0  0  0  0
   16.5662  -10.3794  -17.2317 C   0  0  0  0  0  0  0  0  0  0  0  0
  3  2  1  0
  4  3  1  0
  5  4  1  0
  6  1  1  0
  6  2  1  0
  7  3  1  0
  7  4  1  0
  7  6  1  0
  8  1  1  0
  9  5  1  0
 11 10  1  0
 12 11  2  3
 13  9  1  0
 14 12  1  0
 15  8  1  0
 15 10  1  0
 16  5  1  0
 17 16  1  0
 18 17  1  0
 19 14  1  0
 20 19  1  0
 21 20  1  0
 22 21  2  0
 23  9  1  0
 23 13  1  0
 24 22  1  0
 25 24  1  0
 26 24  1  0
 27 16  1  0
 27 17  1  0
 27 18  1  0
 28 26  1  0
 29 19  1  0
 29 20  1  0
 29 28  1  0
M  END
$$$$
