
     RDKit          2D

 62 67  0  0  0  0  0  0  0  0999 V2000
   -6.7652    0.7167    0.0000 C   0  0  0  0  0  0  0  0  0  0  0  0
   -5.2787    0.9181    0.0000 C   0  0  0  0  0  0  0  0  0  0  0  0
   -5.2339   -0.5812    0.0000 C   0  0  0  0  0  0  0  0  0  0  0  0
   -3.7941   -1.0019    0.0000 C   0  0  0  0  0  0  0  0  0  0  0  0
   -4.8468   -2.0704    0.0000 C   0  0  0  0  0  0  0  0  0  0  0  0
   -3.3519   -2.4352    0.0000 C   0  0  0  0  0  0  0  0  0  0  0  0
   -1.9556   -2.9832    0.0000 C   0  0  0  0  0  0  0  0  0  0  0  0
   -0.6566   -2.2332    0.0000 C   0  0  0  0  0  0  0  0  0  0  0  0
    0.3637   -3.3328    0.0000 C   0  0  0  0  0  0  0  0  0  0  0  0
    1.8595   -3.2207    0.0000 C   0  0  0  0  0  0  0  0  0  0  0  0
    2.7045   -1.9814    0.0000 C   0  0  0  0  0  0  0  0  0  0  0  0
    2.2623   -0.5480    0.0000 C   0  0  0  0  0  0  0  0  0  0  0  0
    0.8660    0.0000    0.0000 C   0  0  0  0  0  0  0  0  0  0  0  0
    1.5169    1.3515    0.0000 C   0  0  0  0  0  0  0  0  0  0  0  0
   -0.4330    0.7500    0.0000 C   0  0  0  0  0  0  0  0  0  0  0  0
   -1.4533    0.3496    0.0000 C   0  0  0  0  0  0  0  0  0  0  0  0
   -2.9491    0.2375    0.0000 C   0  0  0  0  0  0  0  0  0  0  0  0
   -3.8667    1.4241    0.0000 C   0  0  0  0  0  0  0  0  0  0  0  0
   -4.5175    2.7755    0.0000 C   0  0  0  0  0  0  0  0  0  0  0  0
   -5.1683    4.1270    0.0000 C   0  0  0  0  0  0  0  0  0  0  0  0
   -6.6123    3.7207    0.0000 C   0  0  0  0  0  0  0  0  0  0  0  0
   -5.3177    5.6195    0.0000 C   0  0  0  0  0  0  0  0  0  0  0  0
   -3.9504    5.0026    0.0000 C   0  0  0  0  0  0  0  0  0  0  0  0
   -0.4330   -0.7500    0.0000 C   0  0  0  0  0  0  0  0  0  0  0  0
   -8.2516    0.5154    0.0000 H   0  0  0  0  0  0  0  0  0  0  0  0
   -6.7803    1.9317    0.0000 H   0  0  0  0  0  0  0  0  0  0  0  0
   -6.8525   -0.0756    0.0000 H   0  0  0  0  0  0  0  0  0  0  0  0
   -5.8439    1.9937    0.0000 H   0  0  0  0  0  0  0  0  0  0  0  0
   -6.0129   -1.8631    0.0000 H   0  0  0  0  0  0  0  0  0  0  0  0
   -6.0301   -0.6190    0.0000 H   0  0  0  0  0  0  0  0  0  0  0  0
   -5.8995   -3.1390    0.0000 H   0  0  0  0  0  0  0  0  0  0  0  0
   -3.9145   -3.2455    0.0000 H   0  0  0  0  0  0  0  0  0  0  0  0
   -6.0357   -1.1558    0.0000 H   0  0  0  0  0  0  0  0  0  0  0  0
   -4.7082   -3.0760    0.0000 H   0  0  0  0  0  0  0  0  0  0  0  0
   -3.5755   -3.9185    0.0000 H   0  0  0  0  0  0  0  0  0  0  0  0
   -2.6432   -4.3164    0.0000 H   0  0  0  0  0  0  0  0  0  0  0  0
   -1.0770   -4.1990    0.0000 H   0  0  0  0  0  0  0  0  0  0  0  0
   -2.0529   -1.6852    0.0000 H   0  0  0  0  0  0  0  0  0  0  0  0
   -0.8342   -4.2356    0.0000 H   0  0  0  0  0  0  0  0  0  0  0  0
    0.6278   -4.8094    0.0000 H   0  0  0  0  0  0  0  0  0  0  0  0
    1.8184   -4.7202    0.0000 H   0  0  0  0  0  0  0  0  0  0  0  0
    3.1786   -3.9349    0.0000 H   0  0  0  0  0  0  0  0  0  0  0  0
    3.8512   -2.9484    0.0000 H   0  0  0  0  0  0  0  0  0  0  0  0
    4.0852   -1.3953    0.0000 H   0  0  0  0  0  0  0  0  0  0  0  0
    3.7333   -0.2544    0.0000 H   0  0  0  0  0  0  0  0  0  0  0  0
    2.6650    0.8969    0.0000 H   0  0  0  0  0  0  0  0  0  0  0  0
    2.1677    2.7029    0.0000 H   0  0  0  0  0  0  0  0  0  0  0  0
    0.1654    2.0023    0.0000 H   0  0  0  0  0  0  0  0  0  0  0  0
    2.9376    0.8702    0.0000 H   0  0  0  0  0  0  0  0  0  0  0  0
   -1.0191    2.1308    0.0000 H   0  0  0  0  0  0  0  0  0  0  0  0
   -1.0796    1.8023    0.0000 H   0  0  0  0  0  0  0  0  0  0  0  0
   -2.1765    1.5232    0.0000 H   0  0  0  0  0  0  0  0  0  0  0  0
   -2.6963    2.3623    0.0000 H   0  0  0  0  0  0  0  0  0  0  0  0
   -3.0968    3.2568    0.0000 H   0  0  0  0  0  0  0  0  0  0  0  0
   -5.8689    2.1247    0.0000 H   0  0  0  0  0  0  0  0  0  0  0  0
   -8.0562    3.3145    0.0000 H   0  0  0  0  0  0  0  0  0  0  0  0
   -7.1915    5.1044    0.0000 H   0  0  0  0  0  0  0  0  0  0  0  0
   -6.3850    2.2380    0.0000 H   0  0  0  0  0  0  0  0  0  0  0  0
   -6.7887    5.9131    0.0000 H   0  0  0  0  0  0  0  0  0  0  0  0
   -4.9475    7.0732    0.0000 H   0  0  0  0  0  0  0  0  0  0  0  0
   -3.1054    6.2420    0.0000 H   0  0  0  0  0  0  0  0  0  0  0  0
   -2.7569    4.0940    0.0000 H   0  0  0  0  0  0  0  0  0  0  0  0
  1  2  1  0
  2  3  1  0
  3  4  1  0
  4  5  1  0
  4  6  1  0
  6  7  1  0
  7  8  1  0
  8  9  1  0
  9 10  1  0
 10 11  1  0
 11 12  1  0
 12 13  1  0
 13 14  1  0
 13 15  1  0
 15 16  1  0
 16 17  1  0
 17 18  1  0
 18 19  1  0
 19 20  1  0
 20 21  1  0
 20 22  1  0
 22 23  1  0
 16 24  1  0
 18  2  1  0
 23 20  1  0
 17  4  1  0
 24  8  1  0
 24 13  1  0
 24 15  1  0
  1 25  1  0
  1 26  1  0
  1 27  1  0
  2 28  1  0
  3 29  1  0
  3 30  1  0
  5 31  1  0
  5 32  1  0
  5 33  1  0
  6 34  1  0
  6 35  1  0
  7 36  1  0
  7 37  1  0
  8 38  1  0
  9 39  1  0
  9 40  1  0
 10 41  1  0
 10 42  1  0
 11 43  1  0
 11 44  1  0
 12 45  1  0
 12 46  1  0
 14 47  1  0
 14 48  1  0
 14 49  1  0
 15 50  1  0
 16 51  1  0
 17 52  1  0
 18 53  1  0
 19 54  1  0
 19 55  1  0
 21 56  1  0
 21 57  1  0
 21 58  1  0
 22 59  1  0
 22 60  1  0
 23 61  1  0
 23 62  1  0
M  END
$$$$
