
     RDKit          2D

 77 80  0  0  0  0  0  0  0  0999 V2000
   -8.4902   -9.6100    0.0000 C   0  0  0  0  0  0  0  0  0  0  0  0
   -8.2297   -8.1328    0.0000 C   0  0  0  0  0  0  0  0  0  0  0  0
   -9.3787   -7.1686    0.0000 C   0  0  0  0  0  0  0  0  0  0  0  0
  -10.5278   -6.2044    0.0000 C   0  0  0  0  0  0  0  0  0  0  0  0
  -11.9374   -6.7175    0.0000 C   0  0  0  0  0  0  0  0  0  0  0  0
  -10.2673   -4.7272    0.0000 O   0  0  0  0  0  0  0  0  0  0  0  0
   -6.8201   -7.6198    0.0000 C   0  0  0  0  0  0  0  0  0  0  0  0
   -5.4106   -7.1067    0.0000 C   0  0  0  0  0  0  0  0  0  0  0  0
   -4.0011   -6.5937    0.0000 C   0  0  0  0  0  0  0  0  0  0  0  0
   -3.4880   -8.0032    0.0000 C   0  0  0  0  0  0  0  0  0  0  0  0
   -2.0785   -7.4902    0.0000 C   0  0  0  0  0  0  0  0  0  0  0  0
   -2.5915   -6.0807    0.0000 C   0  0  0  0  0  0  0  0  0  0  0  0
   -5.9236   -5.6972    0.0000 C   0  0  0  0  0  0  0  0  0  0  0  0
   -5.9236   -4.1972    0.0000 C   0  0  0  0  0  0  0  0  0  0  0  0
   -4.6246   -4.9472    0.0000 C   0  0  0  0  0  0  0  0  0  0  0  0
   -3.6604   -3.7981    0.0000 C   0  0  0  0  0  0  0  0  0  0  0  0
   -2.6962   -2.6491    0.0000 C   0  0  0  0  0  0  0  0  0  0  0  0
   -1.7321   -1.5000    0.0000 C   0  0  0  0  0  0  0  0  0  0  0  0
   -3.0311   -0.7500    0.0000 C   0  0  0  0  0  0  0  0  0  0  0  0
   -3.0311    0.7500    0.0000 C   0  0  0  0  0  0  0  0  0  0  0  0
   -3.5441    2.1595    0.0000 C   0  0  0  0  0  0  0  0  0  0  0  0
   -4.0571    3.5691    0.0000 C   0  0  0  0  0  0  0  0  0  0  0  0
   -4.5702    4.9786    0.0000 C   0  0  0  0  0  0  0  0  0  0  0  0
   -5.0832    6.3882    0.0000 C   0  0  0  0  0  0  0  0  0  0  0  0
   -6.4927    5.8751    0.0000 O   0  0  0  0  0  0  0  0  0  0  0  0
   -5.5962    7.7977    0.0000 C   0  0  0  0  0  0  0  0  0  0  0  0
   -6.1093    9.2072    0.0000 O   0  0  0  0  0  0  0  0  0  0  0  0
   -1.7321    1.5000    0.0000 C   0  0  0  0  0  0  0  0  0  0  0  0
   -0.4330    0.7500    0.0000 C   0  0  0  0  0  0  0  0  0  0  0  0
    0.8660    0.0000    0.0000 C   0  0  0  0  0  0  0  0  0  0  0  0
   -0.4330   -0.7500    0.0000 C   0  0  0  0  0  0  0  0  0  0  0  0
   -9.8997  -10.1230    0.0000 H   0  0  0  0  0  0  0  0  0  0  0  0
   -7.3411  -10.5742    0.0000 H   0  0  0  0  0  0  0  0  0  0  0  0
  -10.3429   -8.3177    0.0000 H   0  0  0  0  0  0  0  0  0  0  0  0
   -8.4146   -6.0196    0.0000 H   0  0  0  0  0  0  0  0  0  0  0  0
  -13.3469   -7.2305    0.0000 H   0  0  0  0  0  0  0  0  0  0  0  0
  -12.4504   -5.3079    0.0000 H   0  0  0  0  0  0  0  0  0  0  0  0
  -11.4243   -8.1270    0.0000 H   0  0  0  0  0  0  0  0  0  0  0  0
   -7.3166   -6.6455    0.0000 H   0  0  0  0  0  0  0  0  0  0  0  0
   -6.3071   -9.0293    0.0000 H   0  0  0  0  0  0  0  0  0  0  0  0
   -5.2114   -7.9698    0.0000 H   0  0  0  0  0  0  0  0  0  0  0  0
   -4.0843   -5.8009    0.0000 H   0  0  0  0  0  0  0  0  0  0  0  0
   -2.9750   -9.4128    0.0000 H   0  0  0  0  0  0  0  0  0  0  0  0
   -4.2772   -8.4054    0.0000 H   0  0  0  0  0  0  0  0  0  0  0  0
   -0.6690   -6.9772    0.0000 H   0  0  0  0  0  0  0  0  0  0  0  0
   -1.5655   -8.8998    0.0000 H   0  0  0  0  0  0  0  0  0  0  0  0
   -2.9289   -4.6191    0.0000 H   0  0  0  0  0  0  0  0  0  0  0  0
   -1.1820   -5.5676    0.0000 H   0  0  0  0  0  0  0  0  0  0  0  0
   -7.0156   -5.7544    0.0000 H   0  0  0  0  0  0  0  0  0  0  0  0
   -7.4008   -3.9367    0.0000 H   0  0  0  0  0  0  0  0  0  0  0  0
   -5.5862   -2.7356    0.0000 H   0  0  0  0  0  0  0  0  0  0  0  0
   -3.6416   -5.6613    0.0000 H   0  0  0  0  0  0  0  0  0  0  0  0
   -4.6834   -2.7011    0.0000 H   0  0  0  0  0  0  0  0  0  0  0  0
   -2.4024   -4.6151    0.0000 H   0  0  0  0  0  0  0  0  0  0  0  0
   -3.9543   -1.8321    0.0000 H   0  0  0  0  0  0  0  0  0  0  0  0
   -1.5472   -3.6132    0.0000 H   0  0  0  0  0  0  0  0  0  0  0  0
   -0.7679   -2.6491    0.0000 H   0  0  0  0  0  0  0  0  0  0  0  0
   -4.5083   -0.4895    0.0000 H   0  0  0  0  0  0  0  0  0  0  0  0
   -3.7121   -2.0865    0.0000 H   0  0  0  0  0  0  0  0  0  0  0  0
   -4.5083    0.4895    0.0000 H   0  0  0  0  0  0  0  0  0  0  0  0
   -2.2076    2.8406    0.0000 H   0  0  0  0  0  0  0  0  0  0  0  0
   -4.9537    1.6465    0.0000 H   0  0  0  0  0  0  0  0  0  0  0  0
   -5.4667    3.0560    0.0000 H   0  0  0  0  0  0  0  0  0  0  0  0
   -2.6476    4.0821    0.0000 H   0  0  0  0  0  0  0  0  0  0  0  0
   -3.1606    5.4916    0.0000 H   0  0  0  0  0  0  0  0  0  0  0  0
   -5.9797    4.4656    0.0000 H   0  0  0  0  0  0  0  0  0  0  0  0
   -3.6737    6.9012    0.0000 H   0  0  0  0  0  0  0  0  0  0  0  0
   -7.7508    6.6921    0.0000 H   0  0  0  0  0  0  0  0  0  0  0  0
   -4.1867    8.3107    0.0000 H   0  0  0  0  0  0  0  0  0  0  0  0
   -7.0578    7.4603    0.0000 H   0  0  0  0  0  0  0  0  0  0  0  0
   -5.1451   10.3563    0.0000 H   0  0  0  0  0  0  0  0  0  0  0  0
   -0.7679    2.6491    0.0000 H   0  0  0  0  0  0  0  0  0  0  0  0
   -2.5490    2.7580    0.0000 H   0  0  0  0  0  0  0  0  0  0  0  0
    0.3170    2.0490    0.0000 H   0  0  0  0  0  0  0  0  0  0  0  0
    1.8302    1.1491    0.0000 H   0  0  0  0  0  0  0  0  0  0  0  0
    1.8302   -1.1491    0.0000 H   0  0  0  0  0  0  0  0  0  0  0  0
    0.3170   -2.0490    0.0000 H   0  0  0  0  0  0  0  0  0  0  0  0
  1  2  2  3
  2  3  1  0
  3  4  1  0
  4  5  1  0
  4  6  2  0
  2  7  1  0
  7  8  1  0
  8  9  1  0
  9 10  1  0
 10 11  1  0
 11 12  1  0
  8 13  1  0
 13 14  1  0
 14 15  1  0
 15 16  1  0
 16 17  1  0
 17 18  1  0
 18 19  1  0
 19 20  1  0
 20 21  1  0
 21 22  1  0
 22 23  1  0
 23 24  1  0
 24 25  1  0
 24 26  1  0
 26 27  1  0
 20 28  1  0
 28 29  1  0
 29 30  1  0
 30 31  1  0
 12  9  1  0
 15 13  1  0
 31 18  1  0
 31 29  1  0
  1 32  1  0
  1 33  1  0
  3 34  1  0
  3 35  1  0
  5 36  1  0
  5 37  1  0
  5 38  1  0
  7 39  1  0
  7 40  1  0
  8 41  1  6
  9 42  1  0
 10 43  1  0
 10 44  1  0
 11 45  1  0
 11 46  1  0
 12 47  1  0
 12 48  1  0
 13 49  1  6
 14 50  1  0
 14 51  1  0
 15 52  1  1
 16 53  1  0
 16 54  1  0
 17 55  1  0
 17 56  1  0
 18 57  1  6
 19 58  1  0
 19 59  1  0
 20 60  1  1
 21 61  1  0
 21 62  1  0
 22 63  1  0
 22 64  1  0
 23 65  1  0
 23 66  1  0
 24 67  1  1
 25 68  1  0
 26 69  1  0
 26 70  1  0
 27 71  1  0
 28 72  1  0
 28 73  1  0
 29 74  1  6
 30 75  1  0
 30 76  1  0
 31 77  1  6
M  END
$$$$
