
     RDKit          3D

  7  6  0  0  0  0  0  0  0  0999 V2000
   18.1275  -18.0816  -12.6022 C   0  0  0  0  0  0  0  0  0  0  0  0
   18.9495  -16.4488  -11.0378 O   0  0  0  0  0  0  0  0  0  0  0  0
   19.8937  -18.6602  -10.8454 C   0  0  0  0  0  0  0  0  0  0  0  0
   19.6587  -20.1461  -10.9263 C   0  0  0  0  0  0  0  0  0  0  0  0
   18.6310  -17.8144  -11.1680 C   0  0  0  0  0  0  0  0  0  0  0  0
   19.5354  -20.8818   -9.8201 C   0  0  0  0  0  0  0  0  0  0  0  0
   17.5043  -18.1203  -10.1663 C   0  0  0  0  0  0  0  0  0  0  0  0
  4  3  1  0
  5  1  1  0
  5  2  1  0
  5  3  1  0
  6  4  2  0
  7  5  1  0
M  END
$$$$
