
     RDKit          2D

 63 69  0  0  0  0  0  0  0  0999 V2000
    1.7017    3.9793    0.0000 C   0  0  0  0  0  0  0  0  0  0  0  0
    0.2219    3.7336    0.0000 C   0  0  0  0  0  0  0  0  0  0  0  0
   -0.3051    2.3292    0.0000 C   0  0  0  0  0  0  0  0  0  0  0  0
   -1.5570    3.1556    0.0000 C   0  0  0  0  0  0  0  0  0  0  0  0
   -2.9836    2.6920    0.0000 C   0  0  0  0  0  0  0  0  0  0  0  0
   -3.5106    1.2877    0.0000 O   0  0  0  0  0  0  0  0  0  0  0  0
   -2.7413    0.0000    0.0000 C   0  0  0  0  0  0  0  0  0  0  0  0
   -1.8596    1.2135    0.0000 O   0  0  0  0  0  0  0  0  0  0  0  0
   -0.4330    0.7500    0.0000 C   0  0  0  0  0  0  0  0  0  0  0  0
    0.8660    0.0000    0.0000 C   0  0  0  0  0  0  0  0  0  0  0  0
   -0.4330   -0.7500    0.0000 C   0  0  0  0  0  0  0  0  0  0  0  0
   -1.8596   -1.2135    0.0000 C   0  0  0  0  0  0  0  0  0  0  0  0
   -0.7449   -2.2172    0.0000 C   0  0  0  0  0  0  0  0  0  0  0  0
    0.3698   -3.2209    0.0000 C   0  0  0  0  0  0  0  0  0  0  0  0
   -1.0567   -3.6844    0.0000 C   0  0  0  0  0  0  0  0  0  0  0  0
   -0.8480   -5.1698    0.0000 C   0  0  0  0  0  0  0  0  0  0  0  0
   -1.1599   -6.6371    0.0000 C   0  0  0  0  0  0  0  0  0  0  0  0
   -2.1636   -7.7518    0.0000 C   0  0  0  0  0  0  0  0  0  0  0  0
   -3.1672   -8.8665    0.0000 C   0  0  0  0  0  0  0  0  0  0  0  0
   -4.1709   -9.9812    0.0000 C   0  0  0  0  0  0  0  0  0  0  0  0
   -5.1746  -11.0959    0.0000 C   0  0  0  0  0  0  0  0  0  0  0  0
   -5.2857   -8.9775    0.0000 C   0  0  0  0  0  0  0  0  0  0  0  0
   -6.4004   -7.9738    0.0000 C   0  0  0  0  0  0  0  0  0  0  0  0
   -3.2783   -6.7481    0.0000 C   0  0  0  0  0  0  0  0  0  0  0  0
   -4.3930   -5.7444    0.0000 C   0  0  0  0  0  0  0  0  0  0  0  0
   -2.2746   -5.6334    0.0000 C   0  0  0  0  0  0  0  0  0  0  0  0
   -3.0915   -4.3754    0.0000 C   0  0  0  0  0  0  0  0  0  0  0  0
    2.2287    5.3836    0.0000 H   0  0  0  0  0  0  0  0  0  0  0  0
    2.6544    2.8207    0.0000 H   0  0  0  0  0  0  0  0  0  0  0  0
   -0.2530    4.4812    0.0000 H   0  0  0  0  0  0  0  0  0  0  0  0
    1.1813    2.1279    0.0000 H   0  0  0  0  0  0  0  0  0  0  0  0
   -2.1636    4.5274    0.0000 H   0  0  0  0  0  0  0  0  0  0  0  0
   -0.9962    3.8411    0.0000 H   0  0  0  0  0  0  0  0  0  0  0  0
   -4.4700    2.8934    0.0000 H   0  0  0  0  0  0  0  0  0  0  0  0
   -3.2991    4.1585    0.0000 H   0  0  0  0  0  0  0  0  0  0  0  0
   -4.2413    0.0000    0.0000 H   0  0  0  0  0  0  0  0  0  0  0  0
    1.8302    1.1491    0.0000 H   0  0  0  0  0  0  0  0  0  0  0  0
    1.8302   -1.1491    0.0000 H   0  0  0  0  0  0  0  0  0  0  0  0
   -2.9743   -2.2172    0.0000 H   0  0  0  0  0  0  0  0  0  0  0  0
    1.5519   -2.2974    0.0000 H   0  0  0  0  0  0  0  0  0  0  0  0
    1.2302   -4.4496    0.0000 H   0  0  0  0  0  0  0  0  0  0  0  0
   -2.5383   -3.4498    0.0000 H   0  0  0  0  0  0  0  0  0  0  0  0
    0.6335   -5.4045    0.0000 H   0  0  0  0  0  0  0  0  0  0  0  0
    0.1767   -7.3181    0.0000 H   0  0  0  0  0  0  0  0  0  0  0  0
   -1.0488   -8.7555    0.0000 H   0  0  0  0  0  0  0  0  0  0  0  0
   -2.0525   -9.8702    0.0000 H   0  0  0  0  0  0  0  0  0  0  0  0
   -4.3960   -8.0062    0.0000 H   0  0  0  0  0  0  0  0  0  0  0  0
   -3.0562  -10.9849    0.0000 H   0  0  0  0  0  0  0  0  0  0  0  0
   -6.1783  -12.2107    0.0000 H   0  0  0  0  0  0  0  0  0  0  0  0
   -4.6517  -11.6976    0.0000 H   0  0  0  0  0  0  0  0  0  0  0  0
   -4.5216  -11.5532    0.0000 H   0  0  0  0  0  0  0  0  0  0  0  0
   -6.4178   -9.9616    0.0000 H   0  0  0  0  0  0  0  0  0  0  0  0
   -6.1460  -10.2063    0.0000 H   0  0  0  0  0  0  0  0  0  0  0  0
   -7.5151   -6.9701    0.0000 H   0  0  0  0  0  0  0  0  0  0  0  0
   -7.4041   -9.0885    0.0000 H   0  0  0  0  0  0  0  0  0  0  0  0
   -5.5400   -6.7451    0.0000 H   0  0  0  0  0  0  0  0  0  0  0  0
   -4.4104   -7.7321    0.0000 H   0  0  0  0  0  0  0  0  0  0  0  0
   -5.5077   -4.7407    0.0000 H   0  0  0  0  0  0  0  0  0  0  0  0
   -5.5251   -6.7284    0.0000 H   0  0  0  0  0  0  0  0  0  0  0  0
   -3.6889   -4.4199    0.0000 H   0  0  0  0  0  0  0  0  0  0  0  0
   -3.9085   -3.1174    0.0000 H   0  0  0  0  0  0  0  0  0  0  0  0
   -4.5098   -4.8636    0.0000 H   0  0  0  0  0  0  0  0  0  0  0  0
   -2.2100   -3.1618    0.0000 H   0  0  0  0  0  0  0  0  0  0  0  0
  1  2  2  3
  2  3  1  0
  3  4  1  0
  4  5  1  0
  5  6  1  0
  6  7  1  0
  7  8  1  0
  8  9  1  0
  9 10  1  1
 11 10  1  1
 11 12  1  0
 12 13  1  0
 13 14  1  1
 14 15  1  0
 15 16  1  0
 16 17  1  0
 17 18  1  0
 18 19  1  0
 19 20  1  0
 20 21  1  0
 20 22  1  0
 22 23  1  0
 18 24  1  0
 24 25  1  0
 24 26  1  0
 26 27  1  6
  9  3  1  0
 13 11  1  0
 26 16  1  0
 12  7  1  0
 15 13  1  0
 26 17  1  0
 11  9  1  0
  1 28  1  0
  1 29  1  0
  2 30  1  0
  3 31  1  1
  4 32  1  0
  4 33  1  0
  5 34  1  0
  5 35  1  0
  7 36  1  1
 10 37  1  0
 10 38  1  0
 12 39  1  6
 14 40  1  0
 14 41  1  0
 15 42  1  1
 16 43  1  1
 17 44  1  6
 18 45  1  1
 19 46  1  0
 19 47  1  0
 20 48  1  6
 21 49  1  0
 21 50  1  0
 21 51  1  0
 22 52  1  0
 22 53  1  0
 23 54  1  0
 23 55  1  0
 23 56  1  0
 24 57  1  6
 25 58  1  0
 25 59  1  0
 25 60  1  0
 27 61  1  0
 27 62  1  0
 27 63  1  0
M  END
$$$$
