
     RDKit          2D

 61 67  0  0  0  0  0  0  0  0999 V2000
    7.1709   -7.0231    0.0000 C   0  0  0  0  0  0  0  0  0  0  0  0
    5.6747   -6.9168    0.0000 C   0  0  0  0  0  0  0  0  0  0  0  0
    5.0186   -5.5679    0.0000 C   0  0  0  0  0  0  0  0  0  0  0  0
    3.5224   -5.4616    0.0000 C   0  0  0  0  0  0  0  0  0  0  0  0
    4.1680   -4.1077    0.0000 C   0  0  0  0  0  0  0  0  0  0  0  0
    4.1621   -2.6077    0.0000 C   0  0  0  0  0  0  0  0  0  0  0  0
    3.5061   -1.2588    0.0000 C   0  0  0  0  0  0  0  0  0  0  0  0
    2.3297   -0.3281    0.0000 C   0  0  0  0  0  0  0  0  0  0  0  0
    0.8660    0.0000    0.0000 N   0  0  0  0  0  0  0  0  0  0  0  0
   -0.4330    0.7500    0.0000 C   0  0  0  0  0  0  0  0  0  0  0  0
   -1.9330    0.7500    0.0000 C   0  0  0  0  0  0  0  0  0  0  0  0
   -1.9330   -0.7500    0.0000 C   0  0  0  0  0  0  0  0  0  0  0  0
   -1.9330   -2.2500    0.0000 C   0  0  0  0  0  0  0  0  0  0  0  0
   -0.4330   -2.2500    0.0000 C   0  0  0  0  0  0  0  0  0  0  0  0
   -0.4330   -0.7500    0.0000 C   0  0  0  0  0  0  0  0  0  0  0  0
   -2.4039   -4.1332    0.0000 O   0  0  0  0  0  0  0  0  0  0  0  0
   -1.7478   -5.4821    0.0000 C   0  0  0  0  0  0  0  0  0  0  0  0
   -0.5715   -6.4128    0.0000 C   0  0  0  0  0  0  0  0  0  0  0  0
    0.8922   -6.7409    0.0000 C   0  0  0  0  0  0  0  0  0  0  0  0
    2.3533   -6.4014    0.0000 C   0  0  0  0  0  0  0  0  0  0  0  0
    2.3475   -4.9014    0.0000 C   0  0  0  0  0  0  0  0  0  0  0  0
    2.9930   -3.5475    0.0000 C   0  0  0  0  0  0  0  0  0  0  0  0
    2.5453   -2.1158    0.0000 C   0  0  0  0  0  0  0  0  0  0  0  0
    3.8775   -1.4263    0.0000 C   0  0  0  0  0  0  0  0  0  0  0  0
    3.9464    0.0721    0.0000 C   0  0  0  0  0  0  0  0  0  0  0  0
    2.6143   -0.6174    0.0000 C   0  0  0  0  0  0  0  0  0  0  0  0
    8.6672   -7.1294    0.0000 H   0  0  0  0  0  0  0  0  0  0  0  0
    7.0646   -8.5194    0.0000 H   0  0  0  0  0  0  0  0  0  0  0  0
    7.2772   -5.5269    0.0000 H   0  0  0  0  0  0  0  0  0  0  0  0
    4.8345   -8.1595    0.0000 H   0  0  0  0  0  0  0  0  0  0  0  0
    6.0040   -4.4370    0.0000 H   0  0  0  0  0  0  0  0  0  0  0  0
    3.9701   -6.8933    0.0000 H   0  0  0  0  0  0  0  0  0  0  0  0
    5.4843   -3.3884    0.0000 H   0  0  0  0  0  0  0  0  0  0  0  0
    5.4272   -4.9228    0.0000 H   0  0  0  0  0  0  0  0  0  0  0  0
    5.6537   -2.4489    0.0000 H   0  0  0  0  0  0  0  0  0  0  0  0
    3.7645    0.2188    0.0000 H   0  0  0  0  0  0  0  0  0  0  0  0
    5.0014   -1.1409    0.0000 H   0  0  0  0  0  0  0  0  0  0  0  0
    2.1004    1.1543    0.0000 H   0  0  0  0  0  0  0  0  0  0  0  0
    3.2691    0.8414    0.0000 H   0  0  0  0  0  0  0  0  0  0  0  0
   -0.0448    2.1989    0.0000 H   0  0  0  0  0  0  0  0  0  0  0  0
   -3.4330    0.7500    0.0000 H   0  0  0  0  0  0  0  0  0  0  0  0
   -1.9330    2.2500    0.0000 H   0  0  0  0  0  0  0  0  0  0  0  0
   -3.4330   -0.7500    0.0000 H   0  0  0  0  0  0  0  0  0  0  0  0
   -2.9937   -3.3107    0.0000 H   0  0  0  0  0  0  0  0  0  0  0  0
    1.0558   -2.4328    0.0000 H   0  0  0  0  0  0  0  0  0  0  0  0
   -0.4330   -3.7500    0.0000 H   0  0  0  0  0  0  0  0  0  0  0  0
   -2.3561   -6.8533    0.0000 H   0  0  0  0  0  0  0  0  0  0  0  0
   -3.2432   -5.6000    0.0000 H   0  0  0  0  0  0  0  0  0  0  0  0
   -0.5246   -7.9121    0.0000 H   0  0  0  0  0  0  0  0  0  0  0  0
   -1.7659   -7.3202    0.0000 H   0  0  0  0  0  0  0  0  0  0  0  0
    1.7420   -7.9770    0.0000 H   0  0  0  0  0  0  0  0  0  0  0  0
    0.2098   -8.0767    0.0000 H   0  0  0  0  0  0  0  0  0  0  0  0
    3.0094   -7.7503    0.0000 H   0  0  0  0  0  0  0  0  0  0  0  0
    1.1970   -3.9389    0.0000 H   0  0  0  0  0  0  0  0  0  0  0  0
    0.9533   -5.4549    0.0000 H   0  0  0  0  0  0  0  0  0  0  0  0
    1.5209   -3.2596    0.0000 H   0  0  0  0  0  0  0  0  0  0  0  0
    1.0923   -2.4880    0.0000 H   0  0  0  0  0  0  0  0  0  0  0  0
    5.2299   -2.0753    0.0000 H   0  0  0  0  0  0  0  0  0  0  0  0
    5.4341    0.2644    0.0000 H   0  0  0  0  0  0  0  0  0  0  0  0
    3.4987    1.5037    0.0000 H   0  0  0  0  0  0  0  0  0  0  0  0
    1.1929   -0.1382    0.0000 H   0  0  0  0  0  0  0  0  0  0  0  0
  1  2  1  0
  2  3  2  3
  3  4  1  0
  4  5  1  0
  5  6  1  0
  6  7  1  0
  7  8  1  0
  8  9  1  0
  9 10  1  0
 10 11  1  0
 11 12  1  0
 12 13  1  0
 13 14  1  0
 15 14  1  6
 13 16  1  0
 16 17  1  0
 17 18  1  0
 18 19  1  0
 19 20  1  0
 20 21  1  0
 21 22  1  0
 22 23  1  0
 23 24  1  0
 24 25  1  0
 25 26  1  0
 20  4  1  0
 26 23  1  0
 22  6  1  0
 26 24  1  0
 15  9  1  0
 15 10  1  0
 15 12  1  0
  1 27  1  0
  1 28  1  0
  1 29  1  0
  2 30  1  0
  3 31  1  0
  4 32  1  1
  5 33  1  0
  5 34  1  0
  6 35  1  6
  7 36  1  0
  7 37  1  0
  8 38  1  0
  8 39  1  0
 10 40  1  6
 11 41  1  0
 11 42  1  0
 12 43  1  6
 13 44  1  6
 14 45  1  0
 14 46  1  0
 17 47  1  0
 17 48  1  0
 18 49  1  0
 18 50  1  0
 19 51  1  0
 19 52  1  0
 20 53  1  1
 21 54  1  0
 21 55  1  0
 22 56  1  1
 23 57  1  1
 24 58  1  1
 25 59  1  0
 25 60  1  0
 26 61  1  1
M  END
$$$$
