
     RDKit          2D

 73 78  0  0  0  0  0  0  0  0999 V2000
   -4.9707    2.0074    0.0000 C   0  0  0  0  0  0  0  0  0  0  0  0
   -3.8560    1.0037    0.0000 C   0  0  0  0  0  0  0  0  0  0  0  0
   -2.7413    0.0000    0.0000 C   0  0  0  0  0  0  0  0  0  0  0  0
   -1.8596    1.2135    0.0000 C   0  0  0  0  0  0  0  0  0  0  0  0
   -1.2495    2.5838    0.0000 O   0  0  0  0  0  0  0  0  0  0  0  0
   -2.1312    3.7974    0.0000 C   0  0  0  0  0  0  0  0  0  0  0  0
   -3.0128    5.0109    0.0000 C   0  0  0  0  0  0  0  0  0  0  0  0
   -4.2264    4.1292    0.0000 O   0  0  0  0  0  0  0  0  0  0  0  0
   -1.7993    5.8926    0.0000 Si  0  0  0  0  0  4  0  0  0  0  0  0
   -0.5858    6.7743    0.0000 C   0  0  0  0  0  0  0  0  0  0  0  0
   -1.2434    8.1224    0.0000 C   0  0  0  0  0  0  0  0  0  0  0  0
   -1.1387    9.6188    0.0000 C   0  0  0  0  0  0  0  0  0  0  0  0
    0.3576    9.5142    0.0000 C   0  0  0  0  0  0  0  0  0  0  0  0
    1.8540    9.4095    0.0000 C   0  0  0  0  0  0  0  0  0  0  0  0
    0.2530    8.0178    0.0000 C   0  0  0  0  0  0  0  0  0  0  0  0
    1.6713    7.5295    0.0000 C   0  0  0  0  0  0  0  0  0  0  0  0
    3.0895    7.0411    0.0000 C   0  0  0  0  0  0  0  0  0  0  0  0
   -2.6810    7.1061    0.0000 N   0  0  0  0  0  0  0  0  0  0  0  0
   -3.8945    6.2244    0.0000 C   0  0  0  0  0  0  0  0  0  0  0  0
   -4.7762    7.4379    0.0000 O   0  0  0  0  0  0  0  0  0  0  0  0
   -5.1081    5.3427    0.0000 C   0  0  0  0  0  0  0  0  0  0  0  0
   -6.3216    4.4611    0.0000 C   0  0  0  0  0  0  0  0  0  0  0  0
   -7.7635    4.0476    0.0000 C   0  0  0  0  0  0  0  0  0  0  0  0
   -7.4006    5.5031    0.0000 C   0  0  0  0  0  0  0  0  0  0  0  0
   -0.4330    0.7500    0.0000 C   0  0  0  0  0  0  0  0  0  0  0  0
    0.8660    0.0000    0.0000 C   0  0  0  0  0  0  0  0  0  0  0  0
   -0.4330   -0.7500    0.0000 C   0  0  0  0  0  0  0  0  0  0  0  0
    0.1771   -2.1203    0.0000 C   0  0  0  0  0  0  0  0  0  0  0  0
   -1.8596   -1.2135    0.0000 C   0  0  0  0  0  0  0  0  0  0  0  0
   -3.1586   -1.9635    0.0000 C   0  0  0  0  0  0  0  0  0  0  0  0
   -6.1995    2.8677    0.0000 H   0  0  0  0  0  0  0  0  0  0  0  0
   -3.8386    2.9914    0.0000 H   0  0  0  0  0  0  0  0  0  0  0  0
   -5.9744    0.8927    0.0000 H   0  0  0  0  0  0  0  0  0  0  0  0
   -3.3988    1.6567    0.0000 H   0  0  0  0  0  0  0  0  0  0  0  0
   -4.8597   -0.1110    0.0000 H   0  0  0  0  0  0  0  0  0  0  0  0
   -3.9700   -0.8603    0.0000 H   0  0  0  0  0  0  0  0  0  0  0  0
   -2.4962    1.6933    0.0000 H   0  0  0  0  0  0  0  0  0  0  0  0
   -3.2282    2.7743    0.0000 H   0  0  0  0  0  0  0  0  0  0  0  0
   -0.8192    4.5245    0.0000 H   0  0  0  0  0  0  0  0  0  0  0  0
   -5.7227    4.0244    0.0000 H   0  0  0  0  0  0  0  0  0  0  0  0
   -0.7763    4.7956    0.0000 H   0  0  0  0  0  0  0  0  0  0  0  0
    0.3582    5.6085    0.0000 H   0  0  0  0  0  0  0  0  0  0  0  0
   -2.7205    8.3830    0.0000 H   0  0  0  0  0  0  0  0  0  0  0  0
   -1.0341   11.1151    0.0000 H   0  0  0  0  0  0  0  0  0  0  0  0
   -2.6351    9.7234    0.0000 H   0  0  0  0  0  0  0  0  0  0  0  0
    0.4623   11.0105    0.0000 H   0  0  0  0  0  0  0  0  0  0  0  0
    3.3519    9.4881    0.0000 H   0  0  0  0  0  0  0  0  0  0  0  0
    1.9586   10.9059    0.0000 H   0  0  0  0  0  0  0  0  0  0  0  0
    2.1145    7.9323    0.0000 H   0  0  0  0  0  0  0  0  0  0  0  0
    1.3594    6.0622    0.0000 H   0  0  0  0  0  0  0  0  0  0  0  0
    2.4883    8.7874    0.0000 H   0  0  0  0  0  0  0  0  0  0  0  0
    4.5078    6.5528    0.0000 H   0  0  0  0  0  0  0  0  0  0  0  0
    2.6012    5.6228    0.0000 H   0  0  0  0  0  0  0  0  0  0  0  0
    3.7471    8.3893    0.0000 H   0  0  0  0  0  0  0  0  0  0  0  0
   -2.6287    8.6052    0.0000 H   0  0  0  0  0  0  0  0  0  0  0  0
   -6.2616    7.6468    0.0000 H   0  0  0  0  0  0  0  0  0  0  0  0
   -5.9897    6.5563    0.0000 H   0  0  0  0  0  0  0  0  0  0  0  0
   -4.5462    3.9519    0.0000 H   0  0  0  0  0  0  0  0  0  0  0  0
   -5.8333    3.0428    0.0000 H   0  0  0  0  0  0  0  0  0  0  0  0
   -7.6067    2.5558    0.0000 H   0  0  0  0  0  0  0  0  0  0  0  0
   -9.2598    4.1522    0.0000 H   0  0  0  0  0  0  0  0  0  0  0  0
   -8.7709    6.1132    0.0000 H   0  0  0  0  0  0  0  0  0  0  0  0
   -6.8876    6.9126    0.0000 H   0  0  0  0  0  0  0  0  0  0  0  0
    0.1771    2.1203    0.0000 H   0  0  0  0  0  0  0  0  0  0  0  0
    1.8302    1.1491    0.0000 H   0  0  0  0  0  0  0  0  0  0  0  0
    1.9631   -1.0230    0.0000 H   0  0  0  0  0  0  0  0  0  0  0  0
    0.7872   -3.4906    0.0000 H   0  0  0  0  0  0  0  0  0  0  0  0
   -1.1086   -2.8929    0.0000 H   0  0  0  0  0  0  0  0  0  0  0  0
    1.6116   -1.6818    0.0000 H   0  0  0  0  0  0  0  0  0  0  0  0
   -1.4211   -2.6480    0.0000 H   0  0  0  0  0  0  0  0  0  0  0  0
   -4.4577   -2.7135    0.0000 H   0  0  0  0  0  0  0  0  0  0  0  0
   -2.4086   -3.2626    0.0000 H   0  0  0  0  0  0  0  0  0  0  0  0
   -4.0614   -0.7656    0.0000 H   0  0  0  0  0  0  0  0  0  0  0  0
  1  2  1  0
  2  3  1  0
  3  4  1  0
  4  5  1  0
  5  6  1  0
  6  7  1  0
  7  8  1  1
  7  9  1  0
  9 10  1  0
 10 11  1  0
 11 12  1  0
 12 13  1  0
 13 14  1  0
 13 15  1  0
 15 16  1  6
 16 17  1  0
  9 18  1  0
 18 19  1  0
 19 20  1  1
 19 21  1  0
 21 22  1  0
 22 23  1  0
 23 24  1  0
  4 25  1  0
 25 26  1  0
 26 27  1  0
 27 28  1  1
 27 29  1  0
 29 30  1  0
 29  3  1  0
 19  7  1  0
 24 22  1  0
 27 25  1  0
 15 10  1  0
 15 11  1  0
  1 31  1  0
  1 32  1  0
  1 33  1  0
  2 34  1  0
  2 35  1  0
  3 36  1  6
  4 37  1  1
  6 38  1  0
  6 39  1  0
  8 40  1  0
  9 41  1  1
 10 42  1  6
 11 43  1  6
 12 44  1  0
 12 45  1  0
 13 46  1  1
 14 47  1  0
 14 48  1  0
 14 49  1  0
 16 50  1  0
 16 51  1  0
 17 52  1  0
 17 53  1  0
 17 54  1  0
 18 55  1  0
 20 56  1  0
 21 57  1  0
 21 58  1  0
 22 59  1  0
 23 60  1  0
 23 61  1  0
 24 62  1  0
 24 63  1  0
 25 64  1  1
 26 65  1  0
 26 66  1  0
 28 67  1  0
 28 68  1  0
 28 69  1  0
 29 70  1  6
 30 71  1  0
 30 72  1  0
 30 73  1  0
M  END
$$$$
