
     RDKit          2D

 60 63  0  0  0  0  0  0  0  0999 V2000
   -5.7843    2.8318    0.0000 C   0  0  0  0  0  0  0  0  0  0  0  0
   -5.2268    1.4392    0.0000 C   0  0  0  0  0  0  0  0  0  0  0  0
   -4.0932    2.4215    0.0000 C   0  0  0  0  0  0  0  0  0  0  0  0
   -2.6084    2.6350    0.0000 C   0  0  0  0  0  0  0  0  0  0  0  0
   -1.2440    2.0119    0.0000 C   0  0  0  0  0  0  0  0  0  0  0  0
   -0.4330    0.7500    0.0000 C   0  0  0  0  0  0  0  0  0  0  0  0
    0.8660    0.0000    0.0000 N   0  0  0  0  0  0  0  0  0  0  0  0
   -0.4330   -0.7500    0.0000 C   0  0  0  0  0  0  0  0  0  0  0  0
   -1.2440   -2.0119    0.0000 C   0  0  0  0  0  0  0  0  0  0  0  0
   -2.6084   -2.6350    0.0000 C   0  0  0  0  0  0  0  0  0  0  0  0
   -3.2958   -3.9683    0.0000 C   0  0  0  0  0  0  0  0  0  0  0  0
   -2.4848   -5.2301    0.0000 O   0  0  0  0  0  0  0  0  0  0  0  0
   -4.0932   -2.4215    0.0000 C   0  0  0  0  0  0  0  0  0  0  0  0
   -5.2268   -1.4392    0.0000 B   0  0  0  0  0  0  0  0  0  0  0  0
   -5.6494    0.0000    0.0000 C   0  0  0  0  0  0  0  0  0  0  0  0
   -6.8712    0.8701    0.0000 C   0  0  0  0  0  0  0  0  0  0  0  0
   -7.9403   -0.1821    0.0000 C   0  0  0  0  0  0  0  0  0  0  0  0
   -8.8406   -1.3819    0.0000 C   0  0  0  0  0  0  0  0  0  0  0  0
  -10.3399   -1.4261    0.0000 C   0  0  0  0  0  0  0  0  0  0  0  0
  -11.3093   -0.2814    0.0000 C   0  0  0  0  0  0  0  0  0  0  0  0
  -11.0187    1.1902    0.0000 C   0  0  0  0  0  0  0  0  0  0  0  0
   -9.6870    1.8805    0.0000 C   0  0  0  0  0  0  0  0  0  0  0  0
  -10.6564    3.0252    0.0000 C   0  0  0  0  0  0  0  0  0  0  0  0
   -8.3170    1.2698    0.0000 C   0  0  0  0  0  0  0  0  0  0  0  0
   -6.3418    4.2243    0.0000 H   0  0  0  0  0  0  0  0  0  0  0  0
   -7.0894    2.4866    0.0000 H   0  0  0  0  0  0  0  0  0  0  0  0
   -5.0858    3.2161    0.0000 H   0  0  0  0  0  0  0  0  0  0  0  0
   -6.5507    1.7032    0.0000 H   0  0  0  0  0  0  0  0  0  0  0  0
   -3.8862    3.4953    0.0000 H   0  0  0  0  0  0  0  0  0  0  0  0
   -4.8797    3.1812    0.0000 H   0  0  0  0  0  0  0  0  0  0  0  0
   -1.7134    3.8387    0.0000 H   0  0  0  0  0  0  0  0  0  0  0  0
   -3.1281    4.0421    0.0000 H   0  0  0  0  0  0  0  0  0  0  0  0
    0.1598    2.5406    0.0000 H   0  0  0  0  0  0  0  0  0  0  0  0
   -0.9204    3.4766    0.0000 H   0  0  0  0  0  0  0  0  0  0  0  0
    0.7267    1.7013    0.0000 H   0  0  0  0  0  0  0  0  0  0  0  0
    2.3660    0.0000    0.0000 H   0  0  0  0  0  0  0  0  0  0  0  0
    0.7267   -1.7013    0.0000 H   0  0  0  0  0  0  0  0  0  0  0  0
   -0.9204   -3.4766    0.0000 H   0  0  0  0  0  0  0  0  0  0  0  0
    0.1598   -2.5406    0.0000 H   0  0  0  0  0  0  0  0  0  0  0  0
   -1.7134   -3.8387    0.0000 H   0  0  0  0  0  0  0  0  0  0  0  0
   -4.7941   -4.0396    0.0000 H   0  0  0  0  0  0  0  0  0  0  0  0
   -5.3922   -3.1715    0.0000 H   0  0  0  0  0  0  0  0  0  0  0  0
   -4.1741   -3.9193    0.0000 H   0  0  0  0  0  0  0  0  0  0  0  0
   -6.4887   -2.2502    0.0000 H   0  0  0  0  0  0  0  0  0  0  0  0
   -6.8712   -0.8701    0.0000 H   0  0  0  0  0  0  0  0  0  0  0  0
   -6.5734    2.3402    0.0000 H   0  0  0  0  0  0  0  0  0  0  0  0
   -9.2040    0.6260    0.0000 H   0  0  0  0  0  0  0  0  0  0  0  0
   -7.4705   -1.9926    0.0000 H   0  0  0  0  0  0  0  0  0  0  0  0
   -8.9496   -2.8780    0.0000 H   0  0  0  0  0  0  0  0  0  0  0  0
  -10.1430   -2.9131    0.0000 H   0  0  0  0  0  0  0  0  0  0  0  0
  -11.5775   -2.2737    0.0000 H   0  0  0  0  0  0  0  0  0  0  0  0
  -12.3491   -1.3625    0.0000 H   0  0  0  0  0  0  0  0  0  0  0  0
  -12.7436    0.1577    0.0000 H   0  0  0  0  0  0  0  0  0  0  0  0
  -12.5123    1.3291    0.0000 H   0  0  0  0  0  0  0  0  0  0  0  0
  -11.5696    2.5853    0.0000 H   0  0  0  0  0  0  0  0  0  0  0  0
   -8.7868    3.0803    0.0000 H   0  0  0  0  0  0  0  0  0  0  0  0
  -11.6258    4.1699    0.0000 H   0  0  0  0  0  0  0  0  0  0  0  0
   -9.5117    3.9946    0.0000 H   0  0  0  0  0  0  0  0  0  0  0  0
  -11.9107    2.2026    0.0000 H   0  0  0  0  0  0  0  0  0  0  0  0
   -7.9862    2.7329    0.0000 H   0  0  0  0  0  0  0  0  0  0  0  0
  1  2  1  0
  2  3  1  0
  3  4  1  0
  4  5  1  0
  5  6  1  0
  6  7  1  0
  7  8  1  0
  8  9  1  0
  9 10  1  0
 10 11  1  0
 11 12  2  0
 10 13  1  0
 13 14  1  0
 14 15  1  0
 15 16  1  0
 16 17  1  0
 17 18  1  0
 18 19  1  0
 19 20  1  0
 20 21  1  0
 21 22  1  0
 22 23  1  0
 22 24  1  0
 15  2  1  0
 24 16  1  0
  8  6  1  0
 24 17  1  0
  1 25  1  0
  1 26  1  0
  1 27  1  0
  2 28  1  0
  3 29  1  0
  3 30  1  0
  4 31  1  0
  4 32  1  0
  5 33  1  0
  5 34  1  0
  6 35  1  0
  7 36  1  0
  8 37  1  0
  9 38  1  0
  9 39  1  0
 10 40  1  0
 11 41  1  0
 13 42  1  0
 13 43  1  0
 14 44  1  0
 15 45  1  0
 16 46  1  0
 17 47  1  0
 18 48  1  0
 18 49  1  0
 19 50  1  0
 19 51  1  0
 20 52  1  0
 20 53  1  0
 21 54  1  0
 21 55  1  0
 22 56  1  0
 23 57  1  0
 23 58  1  0
 23 59  1  0
 24 60  1  0
M  END
$$$$
