
     RDKit          3D

 14 14  0  0  0  0  0  0  0  0999 V2000
   16.6891  -21.4355  -10.8863 N   0  0  0  0  0  0  0  0  0  0  0  0
   17.6167  -20.3936  -10.4272 C   0  0  0  0  0  0  0  0  0  0  0  0
   15.5556  -23.4029  -10.2865 C   0  0  0  0  0  0  0  0  0  0  0  0
   16.2696  -24.4731  -11.0038 N   0  0  0  0  0  0  0  0  0  0  0  0
   17.7512  -19.3391  -11.4503 N   0  0  0  0  0  0  0  0  0  0  0  0
   14.3311  -26.5779  -11.5546 Br  0  0  0  0  0  0  0  0  0  0  0  0
   15.9938  -24.4237  -12.4441 C   0  0  0  0  0  0  0  0  0  0  0  0
   19.1520  -18.9627  -11.7004 C   0  0  0  0  0  0  0  0  0  0  0  0
   16.4843  -22.3553   -9.8351 N   0  0  0  0  0  0  0  0  0  0  0  0
   14.9434  -25.3677  -12.9018 N   0  0  0  0  0  0  0  0  0  0  0  0
   20.0175  -19.6346  -14.0397 C   0  0  0  0  0  0  0  0  0  0  0  0
   18.6775  -19.6625  -14.7720 C   0  0  0  0  0  0  0  0  0  0  0  0
   19.9028  -20.0134  -12.5540 C   0  0  0  0  0  0  0  0  0  0  0  0
   16.3759  -25.6312  -13.1659 C   0  0  0  0  0  0  0  0  0  0  0  0
  2  1  1  0
  4  3  1  0
  5  2  1  0
  7  4  1  0
  8  5  1  0
  9  1  1  0
  9  3  1  0
 10  6  1  0
 10  7  1  0
 12 11  1  0
 13  8  1  0
 13 11  1  0
 14  7  1  0
 14 10  1  0
M  END
$$$$
