
     RDKit          3D

 45 53  0  0  0  0  0  0  0  0999 V2000
   23.8151  -18.3491   -7.5224 O   0  0  0  0  0  0  0  0  0  0  0  0
   25.3768  -17.6736   -6.2776 C   0  0  0  0  0  0  0  0  0  0  0  0
   25.8406  -19.3596   -5.9991 O   0  0  0  0  0  0  0  0  0  0  0  0
   27.2156  -17.3320   -4.4773 C   0  0  0  0  0  0  0  0  0  0  0  0
   26.5577  -18.6995   -4.3181 C   0  0  0  0  0  0  0  0  0  0  0  0
   23.1380  -16.7095   -6.2465 O   0  0  0  0  0  0  0  0  0  0  0  0
   25.5374  -15.3556   -3.6361 C   0  0  0  0  0  0  0  0  0  0  0  0
   22.5043  -17.5380   -8.6420 C   0  0  0  0  0  0  0  0  0  0  0  0
   22.9331  -16.0675   -8.0695 C   0  0  0  0  0  0  0  0  0  0  0  0
   22.3448  -15.3535   -3.8161 C   0  0  0  0  0  0  0  0  0  0  0  0
   22.2924  -15.4295   -1.9660 C   0  0  0  0  0  0  0  0  0  0  0  0
   23.2310  -13.8975   -2.0681 C   0  0  0  0  0  0  0  0  0  0  0  0
   19.5524  -13.4261   -6.2207 C   0  0  0  0  0  0  0  0  0  0  0  0
   26.3088  -16.6856   -4.6512 C   0  0  0  0  0  0  0  0  0  0  0  0
   27.6165  -14.8642   -4.3712 C   0  0  0  0  0  0  0  0  0  0  0  0
   24.8350  -12.6623   -5.6660 C   0  0  0  0  0  0  0  0  0  0  0  0
   19.6424  -12.7094   -2.9170 C   0  0  0  0  0  0  0  0  0  0  0  0
   23.4954  -14.1193   -9.0994 C   0  0  0  0  0  0  0  0  0  0  0  0
   20.3579  -14.2212   -5.0286 C   0  0  0  0  0  0  0  0  0  0  0  0
   24.6822  -12.4370  -11.2368 C   0  0  0  0  0  0  0  0  0  0  0  0
   21.3927  -16.9290   -7.8097 C   0  0  0  0  0  0  0  0  0  0  0  0
   26.5246  -12.9302   -6.8064 C   0  0  0  0  0  0  0  0  0  0  0  0
   24.2638  -13.9922  -11.2200 C   0  0  0  0  0  0  0  0  0  0  0  0
   27.4036  -14.3919   -6.1316 O   0  0  0  0  0  0  0  0  0  0  0  0
   20.7061  -11.0737    1.7594 C   0  0  0  0  0  0  0  0  0  0  0  0
   19.7600  -13.1750    0.8326 C   0  0  0  0  0  0  0  0  0  0  0  0
   19.0877  -10.9441   -2.7072 C   0  0  0  0  0  0  0  0  0  0  0  0
   21.7241  -11.1030   -1.6922 C   0  0  0  0  0  0  0  0  0  0  0  0
   29.0788  -17.5889   -3.6369 C   0  0  0  0  0  0  0  0  0  0  0  0
   22.5194  -13.0074   -4.2142 C   0  0  0  0  0  0  0  0  0  0  0  0
   20.4798   -9.7167   -4.1928 C   0  0  0  0  0  0  0  0  0  0  0  0
   21.6615  -13.5826   -0.3122 C   0  0  0  0  0  0  0  0  0  0  0  0
   28.2422  -19.2603   -2.5823 C   0  0  0  0  0  0  0  0  0  0  0  0
   17.2412  -12.5743   -1.7974 C   0  0  0  0  0  0  0  0  0  0  0  0
   17.4693  -10.4532   -0.8805 C   0  0  0  0  0  0  0  0  0  0  0  0
   17.3443  -12.9450   -2.0365 C   0  0  0  0  0  0  0  0  0  0  0  0
   18.9642  -13.8401   -0.9169 C   0  0  0  0  0  0  0  0  0  0  0  0
   20.5375  -14.0949   -4.1014 C   0  0  0  0  0  0  0  0  0  0  0  0
   17.5209  -12.4936    0.5485 C   0  0  0  0  0  0  0  0  0  0  0  0
   21.7268  -12.3319   -3.3316 C   0  0  0  0  0  0  0  0  0  0  0  0
   16.8584  -13.8810    2.6536 C   0  0  0  0  0  0  0  0  0  0  0  0
   22.4741  -11.0167   -2.9849 C   0  0  0  0  0  0  0  0  0  0  0  0
   24.2661  -13.7589   -6.3854 C   0  0  0  0  0  0  0  0  0  0  0  0
   20.7218  -14.2354   -7.4247 C   0  0  0  0  0  0  0  0  0  0  0  0
   18.9104  -15.1633    0.1711 C   0  0  0  0  0  0  0  0  0  0  0  0
  2  1  1  0
  5  2  1  0
  5  3  1  0
  5  4  1  0
  8  1  1  0
  9  6  1  0
  9  8  1  0
 10  7  1  0
 11 10  1  0
 12 11  1  0
 14  2  1  0
 14  4  1  0
 15  7  1  0
 15 14  1  0
 16 12  1  0
 18  9  1  0
 19 13  1  0
 20 18  1  0
 21  8  1  0
 21  9  1  0
 22 16  1  0
 23 18  1  0
 23 20  1  0
 24 15  1  0
 24 22  1  0
 26 12  1  0
 27 17  1  0
 28 17  1  0
 28 25  1  0
 29  4  1  0
 30 19  1  0
 30 28  1  0
 31 27  1  0
 32 11  1  0
 32 26  1  0
 33 29  1  0
 35 27  1  0
 36 17  1  0
 37 34  1  0
 37 36  1  0
 38 10  1  0
 38 11  1  0
 38 13  1  0
 39 35  1  0
 40 30  1  0
 41 26  2  0
 42 28  1  0
 42 40  1  0
 43 16  2  0
 44 13  1  0
 44 19  1  0
 45 37  1  0
 45 39  1  0
M  END
$$$$
