
     RDKit          3D

 35 40  0  0  0  0  0  0  0  0999 V2000
   -1.5901  -28.5540  -16.8181 C   0  0  0  0  0  0  0  0  0  0  0  0
   -6.1575  -27.0885  -18.9326 C   0  0  0  0  0  0  0  0  0  0  0  0
   -2.8550  -26.4972  -18.8478 C   0  0  0  0  0  0  0  0  0  0  0  0
   -2.6290  -10.3285  -22.1658 Sb  0  0  0  0  0  3  0  0  0  0  0  0
   -3.3623  -15.7699  -21.0311 C   0  0  0  0  0  0  0  0  0  0  0  0
   -5.5215  -14.1622  -18.5508 C   0  0  0  0  0  0  0  0  0  0  0  0
   -4.2772  -18.4459  -20.0084 C   0  0  0  0  0  0  0  0  0  0  0  0
   -7.4182  -14.8699  -17.3834 C   0  0  0  0  0  0  0  0  0  0  0  0
   -6.2948  -16.2954  -19.0105 C   0  0  0  0  0  0  0  0  0  0  0  0
   -4.4167  -13.0689  -20.3867 C   0  0  0  0  0  0  0  0  0  0  0  0
   -3.2922  -23.1532  -20.0945 C   0  0  0  0  0  0  0  0  0  0  0  0
   -0.2934  -32.6072  -16.3287 C   0  0  0  0  0  0  0  0  0  0  0  0
   -2.8902  -12.1353  -19.8554 C   0  0  0  0  0  0  0  0  0  0  0  0
    4.0008  -31.3904  -16.3131 C   0  0  0  0  0  0  0  0  0  0  0  0
   -1.6778  -30.9450  -17.0838 C   0  0  0  0  0  0  0  0  0  0  0  0
   -5.1916  -28.8611  -19.3288 C   0  0  0  0  0  0  0  0  0  0  0  0
   20.7055  -33.0335  -14.8424 C   0  0  0  0  0  0  0  0  0  0  0  0
   -2.2475  -32.7565  -13.8333 C   0  0  0  0  0  0  0  0  0  0  0  0
   28.6778  -36.2834   -8.5008 C   0  0  0  0  0  0  0  0  0  0  0  0
    9.9836  -29.9628  -16.4291 C   0  0  0  0  0  0  0  0  0  0  0  0
   29.0421  -33.5619   -9.2681 C   0  0  0  0  0  0  0  0  0  0  0  0
   35.0158  -42.0263  -10.2221 C   0  0  0  0  0  0  0  0  0  0  0  0
   30.4556  -41.3314  -12.7623 C   0  0  0  0  0  0  0  0  0  0  0  0
   25.1183  -33.9111  -12.0581 C   0  0  0  0  0  0  0  0  0  0  0  0
   26.8356  -31.9982  -11.9369 C   0  0  0  0  0  0  0  0  0  0  0  0
   20.1129  -37.3504  -16.5694 C   0  0  0  0  0  0  0  0  0  0  0  0
   15.2043  -30.3432  -14.1586 C   0  0  0  0  0  0  0  0  0  0  0  0
    4.4549  -27.0343  -17.2545 C   0  0  0  0  0  0  0  0  0  0  0  0
   14.3579  -30.3410  -12.2626 C   0  0  0  0  0  0  0  0  0  0  0  0
   21.0040  -39.1102  -14.1456 C   0  0  0  0  0  0  0  0  0  0  0  0
   27.2077  -36.9017  -12.5831 C   0  0  0  0  0  0  0  0  0  0  0  0
   16.6625  -32.4180  -11.5334 C   0  0  0  0  0  0  0  0  0  0  0  0
   18.5504  -31.3808  -15.9839 C   0  0  0  0  0  0  0  0  0  0  0  0
   22.2050  -35.1031  -14.2877 C   0  0  0  0  0  0  0  0  0  0  0  0
   17.8333  -27.1615  -15.6796 C   0  0  0  0  0  0  0  0  0  0  0  0
  2  1  1  0
  3  1  1  0
  5  4  1  0
  7  5  1  0
  8  6  1  0
  9  6  1  0
  9  7  1  0
  9  8  1  0
 10  4  1  0
 10  6  1  0
 11  3  1  0
 11  7  1  0
 13  4  1  0
 13 10  1  0
 14 12  2  0
 15  1  1  0
 15 12  1  0
 16  2  1  0
 16  3  1  0
 18 12  1  0
 20 14  1  0
 20 17  1  0
 23 22  2  0
 24 19  1  0
 25 17  1  0
 25 21  2  0
 25 24  1  0
 28  1  1  0
 28 20  1  0
 29 27  1  0
 30 26  1  0
 31 23  1  0
 31 24  1  0
 32 27  1  0
 32 29  1  0
 34 26  1  0
 34 31  1  0
 34 33  1  0
 35 27  1  0
 35 33  1  0
M  END
$$$$
