
     RDKit          2D

 67 71  0  0  0  0  0  0  0  0999 V2000
   -5.0293   -7.4258    0.0000 O   0  0  0  0  0  0  0  0  0  0  0  0
   -3.8802   -6.4616    0.0000 C   0  0  0  0  0  0  0  0  0  0  0  0
   -2.7311   -5.4974    0.0000 C   0  0  0  0  0  0  0  0  0  0  0  0
   -1.7670   -6.6465    0.0000 As  0  0  0  0  0  3  0  0  0  0  0  0
   -1.5821   -4.5333    0.0000 C   0  0  0  0  0  0  0  0  0  0  0  0
   -0.4330   -3.5691    0.0000 C   0  0  0  0  0  0  0  0  0  0  0  0
    0.8660   -4.3191    0.0000 C   0  0  0  0  0  0  0  0  0  0  0  0
    2.3432   -4.0586    0.0000 C   0  0  0  0  0  0  0  0  0  0  0  0
    3.3074   -2.9095    0.0000 C   0  0  0  0  0  0  0  0  0  0  0  0
    3.3074   -1.4095    0.0000 C   0  0  0  0  0  0  0  0  0  0  0  0
    2.3432   -0.2605    0.0000 O   0  0  0  0  0  0  0  0  0  0  0  0
    0.8660    0.0000    0.0000 C   0  0  0  0  0  0  0  0  0  0  0  0
   -0.4330    0.7500    0.0000 C   0  0  0  0  0  0  0  0  0  0  0  0
   -1.7321    0.0000    0.0000 C   0  0  0  0  0  0  0  0  0  0  0  0
   -2.6962    1.1491    0.0000 C   0  0  0  0  0  0  0  0  0  0  0  0
   -3.8453    0.1849    0.0000 F   0  0  0  0  0  0  0  0  0  0  0  0
   -3.6604    2.2981    0.0000 C   0  0  0  0  0  0  0  0  0  0  0  0
   -4.6246    3.4472    0.0000 C   0  0  0  0  0  0  0  0  0  0  0  0
   -5.5888    4.5963    0.0000 C   0  0  0  0  0  0  0  0  0  0  0  0
   -6.5530    5.7453    0.0000 C   0  0  0  0  0  0  0  0  0  0  0  0
   -7.8520    6.4953    0.0000 C   0  0  0  0  0  0  0  0  0  0  0  0
   -7.8520    4.9953    0.0000 C   0  0  0  0  0  0  0  0  0  0  0  0
   -0.4330   -0.7500    0.0000 C   0  0  0  0  0  0  0  0  0  0  0  0
   -0.9460   -2.1595    0.0000 C   0  0  0  0  0  0  0  0  0  0  0  0
   -3.6953   -4.3484    0.0000 C   0  0  0  0  0  0  0  0  0  0  0  0
   -4.6595   -3.1993    0.0000 C   0  0  0  0  0  0  0  0  0  0  0  0
   -5.8086   -4.1635    0.0000 C   0  0  0  0  0  0  0  0  0  0  0  0
   -6.7728   -3.0144    0.0000 C   0  0  0  0  0  0  0  0  0  0  0  0
   -5.6237   -2.0502    0.0000 O   0  0  0  0  0  0  0  0  0  0  0  0
   -4.7688   -8.9030    0.0000 H   0  0  0  0  0  0  0  0  0  0  0  0
   -3.0633   -7.7196    0.0000 H   0  0  0  0  0  0  0  0  0  0  0  0
   -4.5280   -5.8576    0.0000 H   0  0  0  0  0  0  0  0  0  0  0  0
   -2.1044   -8.1081    0.0000 H   0  0  0  0  0  0  0  0  0  0  0  0
   -0.2690   -6.5680    0.0000 H   0  0  0  0  0  0  0  0  0  0  0  0
   -2.1514   -3.8547    0.0000 H   0  0  0  0  0  0  0  0  0  0  0  0
   -0.4850   -5.5562    0.0000 H   0  0  0  0  0  0  0  0  0  0  0  0
    0.6056   -5.7963    0.0000 H   0  0  0  0  0  0  0  0  0  0  0  0
    2.1691   -5.5485    0.0000 H   0  0  0  0  0  0  0  0  0  0  0  0
    3.6379   -4.8162    0.0000 H   0  0  0  0  0  0  0  0  0  0  0  0
    4.2783   -4.0530    0.0000 H   0  0  0  0  0  0  0  0  0  0  0  0
    4.7861   -2.6577    0.0000 H   0  0  0  0  0  0  0  0  0  0  0  0
    4.7861   -1.6614    0.0000 H   0  0  0  0  0  0  0  0  0  0  0  0
    4.1317   -0.1563    0.0000 H   0  0  0  0  0  0  0  0  0  0  0  0
    1.3791    1.4095    0.0000 H   0  0  0  0  0  0  0  0  0  0  0  0
   -0.4330    2.2500    0.0000 H   0  0  0  0  0  0  0  0  0  0  0  0
   -2.6207   -0.8286    0.0000 H   0  0  0  0  0  0  0  0  0  0  0  0
   -1.5472    2.1132    0.0000 H   0  0  0  0  0  0  0  0  0  0  0  0
   -2.5113    3.2623    0.0000 H   0  0  0  0  0  0  0  0  0  0  0  0
   -4.8095    1.3340    0.0000 H   0  0  0  0  0  0  0  0  0  0  0  0
   -5.7737    2.4830    0.0000 H   0  0  0  0  0  0  0  0  0  0  0  0
   -3.4755    4.4114    0.0000 H   0  0  0  0  0  0  0  0  0  0  0  0
   -4.4397    5.5604    0.0000 H   0  0  0  0  0  0  0  0  0  0  0  0
   -6.5094    3.6089    0.0000 H   0  0  0  0  0  0  0  0  0  0  0  0
   -5.5888    6.8944    0.0000 H   0  0  0  0  0  0  0  0  0  0  0  0
   -7.3390    7.9049    0.0000 H   0  0  0  0  0  0  0  0  0  0  0  0
   -9.3292    6.7558    0.0000 H   0  0  0  0  0  0  0  0  0  0  0  0
   -9.3292    4.7349    0.0000 H   0  0  0  0  0  0  0  0  0  0  0  0
   -7.5483    3.6799    0.0000 H   0  0  0  0  0  0  0  0  0  0  0  0
   -2.0018   -1.5582    0.0000 H   0  0  0  0  0  0  0  0  0  0  0  0
   -2.0672   -2.6277    0.0000 H   0  0  0  0  0  0  0  0  0  0  0  0
   -4.4382   -4.8308    0.0000 H   0  0  0  0  0  0  0  0  0  0  0  0
   -3.0526   -3.4637    0.0000 H   0  0  0  0  0  0  0  0  0  0  0  0
   -3.5104   -2.2351    0.0000 H   0  0  0  0  0  0  0  0  0  0  0  0
   -6.9576   -5.1277    0.0000 H   0  0  0  0  0  0  0  0  0  0  0  0
   -6.7916   -3.4494    0.0000 H   0  0  0  0  0  0  0  0  0  0  0  0
   -7.7369   -1.8654    0.0000 H   0  0  0  0  0  0  0  0  0  0  0  0
   -7.9218   -3.9786    0.0000 H   0  0  0  0  0  0  0  0  0  0  0  0
  1  2  1  0
  2  3  1  0
  3  4  1  0
  3  5  1  0
  5  6  1  0
  6  7  2  0
  7  8  1  0
  8  9  1  0
  9 10  1  0
 10 11  1  0
 11 12  1  0
 12 13  1  0
 13 14  1  0
 14 15  1  0
 15 16  1  0
 15 17  1  0
 17 18  1  0
 18 19  1  0
 19 20  1  0
 20 21  1  0
 21 22  1  0
 14 23  1  0
 23 24  1  0
  3 25  1  0
 25 26  1  0
 26 27  1  0
 27 28  1  0
 28 29  1  0
 24  6  1  0
 29 26  1  0
 23 12  1  0
 23 13  1  0
 22 20  1  0
  1 30  1  0
  2 31  1  0
  2 32  1  0
  4 33  1  0
  4 34  1  0
  5 35  1  0
  5 36  1  0
  7 37  1  0
  8 38  1  0
  8 39  1  0
  9 40  1  0
  9 41  1  0
 10 42  1  0
 10 43  1  0
 12 44  1  0
 13 45  1  0
 14 46  1  0
 15 47  1  0
 17 48  1  0
 17 49  1  0
 18 50  1  0
 18 51  1  0
 19 52  1  0
 19 53  1  0
 20 54  1  0
 21 55  1  0
 21 56  1  0
 22 57  1  0
 22 58  1  0
 24 59  1  0
 24 60  1  0
 25 61  1  0
 25 62  1  0
 26 63  1  0
 27 64  1  0
 27 65  1  0
 28 66  1  0
 28 67  1  0
M  END
$$$$
