
     RDKit          2D

 53 53  0  0  0  0  0  0  0  0999 V2000
    5.1760    8.3242    0.0000 C   0  0  0  0  0  0  0  0  0  0  0  0
    4.9156    6.8470    0.0000 C   0  0  0  0  0  0  0  0  0  0  0  0
    4.6551    5.3698    0.0000 N   0  0  0  0  0  0  0  0  0  0  0  0
    5.8041    4.4056    0.0000 C   0  0  0  0  0  0  0  0  0  0  0  0
    6.9532    3.4414    0.0000 C   0  0  0  0  0  0  0  0  0  0  0  0
    8.1023    2.4772    0.0000 C   0  0  0  0  0  0  0  0  0  0  0  0
    9.2513    1.5130    0.0000 C   0  0  0  0  0  0  0  0  0  0  0  0
   10.4004    0.5489    0.0000 C   0  0  0  0  0  0  0  0  0  0  0  0
   10.2155    2.6621    0.0000 C   0  0  0  0  0  0  0  0  0  0  0  0
   11.1797    3.8112    0.0000 N   0  0  0  0  0  0  0  0  0  0  0  0
   12.6569    3.5507    0.0000 C   0  0  0  0  0  0  0  0  0  0  0  0
    3.2455    4.8567    0.0000 C   0  0  0  0  0  0  0  0  0  0  0  0
    1.8360    4.3437    0.0000 N   0  0  0  0  0  0  0  0  0  0  0  0
    0.6869    5.3079    0.0000 S   0  0  0  0  0  0  0  0  0  0  0  0
    3.7586    3.4472    0.0000 N   0  0  0  0  0  0  0  0  0  0  0  0
    2.7944    2.2981    0.0000 C   0  0  0  0  0  0  0  0  0  0  0  0
    3.9435    1.3340    0.0000 N   0  0  0  0  0  0  0  0  0  0  0  0
    1.8302    1.1491    0.0000 C   0  0  0  0  0  0  0  0  0  0  0  0
    0.8660    0.0000    0.0000 C   0  0  0  0  0  0  0  0  0  0  0  0
   -0.4330    0.7500    0.0000 C   0  0  0  0  0  0  0  0  0  0  0  0
   -0.4330   -0.7500    0.0000 N   0  0  0  0  0  0  0  0  0  0  0  0
    5.4365    9.8014    0.0000 H   0  0  0  0  0  0  0  0  0  0  0  0
    3.6988    8.5847    0.0000 H   0  0  0  0  0  0  0  0  0  0  0  0
    6.6532    8.0637    0.0000 H   0  0  0  0  0  0  0  0  0  0  0  0
    3.4383    7.1075    0.0000 H   0  0  0  0  0  0  0  0  0  0  0  0
    6.3928    6.5865    0.0000 H   0  0  0  0  0  0  0  0  0  0  0  0
    5.3218    3.6627    0.0000 H   0  0  0  0  0  0  0  0  0  0  0  0
    6.7683    5.5547    0.0000 H   0  0  0  0  0  0  0  0  0  0  0  0
    7.9174    4.5905    0.0000 H   0  0  0  0  0  0  0  0  0  0  0  0
    6.1363    2.1834    0.0000 H   0  0  0  0  0  0  0  0  0  0  0  0
    7.1381    1.3282    0.0000 H   0  0  0  0  0  0  0  0  0  0  0  0
    8.5847    3.2201    0.0000 H   0  0  0  0  0  0  0  0  0  0  0  0
    8.2872    0.3640    0.0000 H   0  0  0  0  0  0  0  0  0  0  0  0
   11.5495   -0.4153    0.0000 H   0  0  0  0  0  0  0  0  0  0  0  0
    9.4362   -0.6002    0.0000 H   0  0  0  0  0  0  0  0  0  0  0  0
   11.0482    1.1529    0.0000 H   0  0  0  0  0  0  0  0  0  0  0  0
   10.9584    2.1797    0.0000 H   0  0  0  0  0  0  0  0  0  0  0  0
    9.6115    3.3099    0.0000 H   0  0  0  0  0  0  0  0  0  0  0  0
   10.6667    5.2207    0.0000 H   0  0  0  0  0  0  0  0  0  0  0  0
   14.1341    3.2902    0.0000 H   0  0  0  0  0  0  0  0  0  0  0  0
   12.9174    5.0279    0.0000 H   0  0  0  0  0  0  0  0  0  0  0  0
   12.3964    2.0735    0.0000 H   0  0  0  0  0  0  0  0  0  0  0  0
    2.7325    6.2663    0.0000 H   0  0  0  0  0  0  0  0  0  0  0  0
    4.6056    3.1882    0.0000 H   0  0  0  0  0  0  0  0  0  0  0  0
    1.6453    3.2623    0.0000 H   0  0  0  0  0  0  0  0  0  0  0  0
    5.4050    1.6713    0.0000 H   0  0  0  0  0  0  0  0  0  0  0  0
    3.8650   -0.1640    0.0000 H   0  0  0  0  0  0  0  0  0  0  0  0
    0.8072    2.2461    0.0000 H   0  0  0  0  0  0  0  0  0  0  0  0
    2.8532    0.0520    0.0000 H   0  0  0  0  0  0  0  0  0  0  0  0
    1.8302   -1.1491    0.0000 H   0  0  0  0  0  0  0  0  0  0  0  0
   -1.9102    1.0105    0.0000 H   0  0  0  0  0  0  0  0  0  0  0  0
   -0.0956    2.2116    0.0000 H   0  0  0  0  0  0  0  0  0  0  0  0
   -1.1830   -2.0490    0.0000 H   0  0  0  0  0  0  0  0  0  0  0  0
  1  2  1  0
  2  3  1  0
  3  4  1  0
  4  5  1  0
  5  6  1  0
  6  7  1  0
  7  8  1  0
  7  9  1  0
  9 10  1  0
 10 11  1  0
  3 12  1  0
 12 13  1  0
 13 14  2  0
 12 15  1  0
 15 16  1  0
 16 17  1  0
 16 18  1  0
 18 19  1  0
 19 20  1  0
 20 21  1  0
 21 19  1  0
  1 22  1  0
  1 23  1  0
  1 24  1  0
  2 25  1  0
  2 26  1  0
  4 27  1  0
  4 28  1  0
  5 29  1  0
  5 30  1  0
  6 31  1  0
  6 32  1  0
  7 33  1  0
  8 34  1  0
  8 35  1  0
  8 36  1  0
  9 37  1  0
  9 38  1  0
 10 39  1  0
 11 40  1  0
 11 41  1  0
 11 42  1  0
 12 43  1  0
 15 44  1  0
 16 45  1  0
 17 46  1  0
 17 47  1  0
 18 48  1  0
 18 49  1  0
 19 50  1  0
 20 51  1  0
 20 52  1  0
 21 53  1  0
M  END
$$$$
