
     RDKit          2D

 61 63  0  0  0  0  0  0  0  0999 V2000
    5.7362   -2.1075    0.0000 C   0  0  0  0  0  0  0  0  0  0  0  0
    6.5750   -0.8640    0.0000 C   0  0  0  0  0  0  0  0  0  0  0  0
    5.9174    0.4842    0.0000 C   0  0  0  0  0  0  0  0  0  0  0  0
    7.3593    0.8977    0.0000 C   0  0  0  0  0  0  0  0  0  0  0  0
    7.7222    2.3531    0.0000 C   0  0  0  0  0  0  0  0  0  0  0  0
    6.6432    3.3951    0.0000 C   0  0  0  0  0  0  0  0  0  0  0  0
    5.2013    2.9816    0.0000 C   0  0  0  0  0  0  0  0  0  0  0  0
    4.8384    1.5262    0.0000 C   0  0  0  0  0  0  0  0  0  0  0  0
    3.4681    2.1363    0.0000 C   0  0  0  0  0  0  0  0  0  0  0  0
    2.0978    2.7464    0.0000 C   0  0  0  0  0  0  0  0  0  0  0  0
    0.7275    3.3565    0.0000 C   0  0  0  0  0  0  0  0  0  0  0  0
   -0.0225    4.6555    0.0000 C   0  0  0  0  0  0  0  0  0  0  0  0
   -1.3928    5.2656    0.0000 C   0  0  0  0  0  0  0  0  0  0  0  0
   -2.8601    4.9538    0.0000 C   0  0  0  0  0  0  0  0  0  0  0  0
   -3.8638    3.8391    0.0000 C   0  0  0  0  0  0  0  0  0  0  0  0
   -4.0206    2.3473    0.0000 C   0  0  0  0  0  0  0  0  0  0  0  0
   -3.2706    1.0482    0.0000 C   0  0  0  0  0  0  0  0  0  0  0  0
   -1.9002    0.4381    0.0000 C   0  0  0  0  0  0  0  0  0  0  0  0
   -0.4330    0.7500    0.0000 C   0  0  0  0  0  0  0  0  0  0  0  0
    0.8660    0.0000    0.0000 C   0  0  0  0  0  0  0  0  0  0  0  0
   -0.4330   -0.7500    0.0000 C   0  0  0  0  0  0  0  0  0  0  0  0
   -1.8675   -1.1886    0.0000 Cl  0  0  0  0  0  0  0  0  0  0  0  0
    0.5707    1.8647    0.0000 C   0  0  0  0  0  0  0  0  0  0  0  0
    1.3207    0.5657    0.0000 C   0  0  0  0  0  0  0  0  0  0  0  0
    6.3938   -3.4557    0.0000 H   0  0  0  0  0  0  0  0  0  0  0  0
    4.2399   -2.0029    0.0000 H   0  0  0  0  0  0  0  0  0  0  0  0
    7.5411   -1.0518    0.0000 H   0  0  0  0  0  0  0  0  0  0  0  0
    4.7039   -0.3975    0.0000 H   0  0  0  0  0  0  0  0  0  0  0  0
    7.5807   -0.0613    0.0000 H   0  0  0  0  0  0  0  0  0  0  0  0
    8.8557    0.7930    0.0000 H   0  0  0  0  0  0  0  0  0  0  0  0
    9.0925    1.7430    0.0000 H   0  0  0  0  0  0  0  0  0  0  0  0
    8.5610    3.5967    0.0000 H   0  0  0  0  0  0  0  0  0  0  0  0
    7.8567    4.2768    0.0000 H   0  0  0  0  0  0  0  0  0  0  0  0
    5.9856    4.7433    0.0000 H   0  0  0  0  0  0  0  0  0  0  0  0
    5.0445    4.4734    0.0000 H   0  0  0  0  0  0  0  0  0  0  0  0
    4.4188    3.1338    0.0000 H   0  0  0  0  0  0  0  0  0  0  0  0
    3.9996    0.2826    0.0000 H   0  0  0  0  0  0  0  0  0  0  0  0
    3.0296    0.7018    0.0000 H   0  0  0  0  0  0  0  0  0  0  0  0
    3.7012    2.8986    0.0000 H   0  0  0  0  0  0  0  0  0  0  0  0
    2.7079    4.1167    0.0000 H   0  0  0  0  0  0  0  0  0  0  0  0
    1.6593    1.3119    0.0000 H   0  0  0  0  0  0  0  0  0  0  0  0
    1.8596    4.3406    0.0000 H   0  0  0  0  0  0  0  0  0  0  0  0
    0.3149    6.1171    0.0000 H   0  0  0  0  0  0  0  0  0  0  0  0
    1.3957    5.1439    0.0000 H   0  0  0  0  0  0  0  0  0  0  0  0
   -1.9789    6.6464    0.0000 H   0  0  0  0  0  0  0  0  0  0  0  0
   -0.5325    6.4944    0.0000 H   0  0  0  0  0  0  0  0  0  0  0  0
   -4.2304    5.5639    0.0000 H   0  0  0  0  0  0  0  0  0  0  0  0
   -2.8863    6.4535    0.0000 H   0  0  0  0  0  0  0  0  0  0  0  0
   -5.2341    4.4492    0.0000 H   0  0  0  0  0  0  0  0  0  0  0  0
   -5.4878    2.0354    0.0000 H   0  0  0  0  0  0  0  0  0  0  0  0
   -3.6080   -0.4133    0.0000 H   0  0  0  0  0  0  0  0  0  0  0  0
   -4.7378    0.7364    0.0000 H   0  0  0  0  0  0  0  0  0  0  0  0
   -1.6657   -1.0434    0.0000 H   0  0  0  0  0  0  0  0  0  0  0  0
   -2.7606   -0.7906    0.0000 H   0  0  0  0  0  0  0  0  0  0  0  0
    2.2569    0.5618    0.0000 H   0  0  0  0  0  0  0  0  0  0  0  0
    1.6830   -1.2580    0.0000 H   0  0  0  0  0  0  0  0  0  0  0  0
    0.0800   -2.1595    0.0000 H   0  0  0  0  0  0  0  0  0  0  0  0
    2.0698    1.8123    0.0000 H   0  0  0  0  0  0  0  0  0  0  0  0
    2.6197    1.3157    0.0000 H   0  0  0  0  0  0  0  0  0  0  0  0
    0.2417   -0.4764    0.0000 H   0  0  0  0  0  0  0  0  0  0  0  0
    2.2234   -0.6322    0.0000 H   0  0  0  0  0  0  0  0  0  0  0  0
  1  2  2  0
  2  3  1  0
  3  4  1  0
  4  5  1  0
  5  6  1  0
  6  7  1  0
  7  8  1  0
  8  9  1  0
  9 10  1  0
 10 11  1  0
 11 12  1  0
 12 13  1  0
 13 14  1  0
 14 15  1  0
 15 16  2  0
 16 17  1  0
 17 18  1  0
 18 19  1  0
 19 20  1  0
 20 21  1  0
 21 22  1  0
 19 23  1  0
 23 24  1  0
  8  3  1  0
 23 11  1  0
 21 19  1  0
  1 25  1  0
  1 26  1  0
  2 27  1  0
  3 28  1  0
  4 29  1  0
  4 30  1  0
  5 31  1  0
  5 32  1  0
  6 33  1  0
  6 34  1  0
  7 35  1  0
  7 36  1  0
  8 37  1  0
  9 38  1  0
  9 39  1  0
 10 40  1  0
 10 41  1  0
 11 42  1  0
 12 43  1  0
 12 44  1  0
 13 45  1  0
 13 46  1  0
 14 47  1  0
 14 48  1  0
 15 49  1  0
 16 50  1  0
 17 51  1  0
 17 52  1  0
 18 53  1  0
 18 54  1  0
 20 55  1  0
 20 56  1  0
 21 57  1  0
 23 58  1  0
 24 59  1  0
 24 60  1  0
 24 61  1  0
M  END
$$$$
