
     RDKit          2D

 41 46  0  0  0  0  0  0  0  0999 V2000
    5.0576    2.6972    0.0000 C   0  0  0  0  0  0  0  0  0  0  0  0
    5.0576    4.1972    0.0000 C   0  0  0  0  0  0  0  0  0  0  0  0
    3.7586    3.4472    0.0000 C   0  0  0  0  0  0  0  0  0  0  0  0
    2.7944    2.2981    0.0000 C   0  0  0  0  0  0  0  0  0  0  0  0
    1.8302    1.1491    0.0000 C   0  0  0  0  0  0  0  0  0  0  0  0
    0.8660    0.0000    0.0000 C   0  0  0  0  0  0  0  0  0  0  0  0
   -0.4330    0.7500    0.0000 C   0  0  0  0  0  0  0  0  0  0  0  0
   -1.8596    1.2135    0.0000 C   0  0  0  0  0  0  0  0  0  0  0  0
   -2.7413    0.0000    0.0000 C   0  0  0  0  0  0  0  0  0  0  0  0
   -1.8596   -1.2135    0.0000 C   0  0  0  0  0  0  0  0  0  0  0  0
   -2.1715   -2.6807    0.0000 C   0  0  0  0  0  0  0  0  0  0  0  0
   -3.6706   -2.6284    0.0000 C   0  0  0  0  0  0  0  0  0  0  0  0
   -5.1696   -2.5760    0.0000 C   0  0  0  0  0  0  0  0  0  0  0  0
   -6.5962   -3.0396    0.0000 C   0  0  0  0  0  0  0  0  0  0  0  0
   -5.4815   -4.0433    0.0000 C   0  0  0  0  0  0  0  0  0  0  0  0
   -0.7449   -2.2172    0.0000 C   0  0  0  0  0  0  0  0  0  0  0  0
   -0.4330   -0.7500    0.0000 C   0  0  0  0  0  0  0  0  0  0  0  0
    6.5348    2.4367    0.0000 H   0  0  0  0  0  0  0  0  0  0  0  0
    4.7540    1.3818    0.0000 H   0  0  0  0  0  0  0  0  0  0  0  0
    4.5446    5.6067    0.0000 H   0  0  0  0  0  0  0  0  0  0  0  0
    6.5348    4.4577    0.0000 H   0  0  0  0  0  0  0  0  0  0  0  0
    2.7944    4.5963    0.0000 H   0  0  0  0  0  0  0  0  0  0  0  0
    1.6453    3.2623    0.0000 H   0  0  0  0  0  0  0  0  0  0  0  0
    3.7151    1.3108    0.0000 H   0  0  0  0  0  0  0  0  0  0  0  0
    0.9095    2.1364    0.0000 H   0  0  0  0  0  0  0  0  0  0  0  0
    2.9793    0.1849    0.0000 H   0  0  0  0  0  0  0  0  0  0  0  0
    1.8302   -1.1491    0.0000 H   0  0  0  0  0  0  0  0  0  0  0  0
   -0.0383    2.0410    0.0000 H   0  0  0  0  0  0  0  0  0  0  0  0
   -1.2495    2.5838    0.0000 H   0  0  0  0  0  0  0  0  0  0  0  0
   -3.1586    1.9635    0.0000 H   0  0  0  0  0  0  0  0  0  0  0  0
   -3.8560    1.0037    0.0000 H   0  0  0  0  0  0  0  0  0  0  0  0
   -3.6370   -0.6272    0.0000 H   0  0  0  0  0  0  0  0  0  0  0  0
   -1.9627   -4.1661    0.0000 H   0  0  0  0  0  0  0  0  0  0  0  0
   -3.5529   -3.9733    0.0000 H   0  0  0  0  0  0  0  0  0  0  0  0
   -3.7659   -1.5391    0.0000 H   0  0  0  0  0  0  0  0  0  0  0  0
   -5.3784   -1.0906    0.0000 H   0  0  0  0  0  0  0  0  0  0  0  0
   -7.3004   -1.7152    0.0000 H   0  0  0  0  0  0  0  0  0  0  0  0
   -7.7782   -3.9631    0.0000 H   0  0  0  0  0  0  0  0  0  0  0  0
   -6.2764   -5.3153    0.0000 H   0  0  0  0  0  0  0  0  0  0  0  0
   -4.3008   -4.6978    0.0000 H   0  0  0  0  0  0  0  0  0  0  0  0
    0.3698   -3.2209    0.0000 H   0  0  0  0  0  0  0  0  0  0  0  0
  1  2  1  0
  2  3  1  0
  3  4  1  0
  4  5  1  0
  5  6  1  0
  6  7  1  0
  7  8  1  0
  8  9  1  0
  9 10  1  0
 10 11  1  0
 11 12  1  0
 12 13  1  0
 13 14  1  0
 14 15  1  0
 11 16  1  0
 16 17  1  0
  3  1  1  0
 17  6  1  0
 17  7  1  0
 16 10  1  0
 17 10  1  0
 15 13  1  0
  1 18  1  0
  1 19  1  0
  2 20  1  0
  2 21  1  0
  3 22  1  0
  4 23  1  0
  4 24  1  0
  5 25  1  0
  5 26  1  0
  6 27  1  0
  7 28  1  0
  8 29  1  0
  8 30  1  0
  9 31  1  0
  9 32  1  0
 11 33  1  0
 12 34  1  0
 12 35  1  0
 13 36  1  0
 14 37  1  0
 14 38  1  0
 15 39  1  0
 15 40  1  0
 16 41  1  0
M  END
$$$$
