
     RDKit          2D

 75 81  0  0  0  0  0  0  0  0999 V2000
   -6.3419   -1.2081    0.0000 C   0  0  0  0  0  0  0  0  0  0  0  0
   -4.8646   -1.4686    0.0000 C   0  0  0  0  0  0  0  0  0  0  0  0
   -3.3874   -1.7291    0.0000 C   0  0  0  0  0  0  0  0  0  0  0  0
   -3.6479   -3.2063    0.0000 O   0  0  0  0  0  0  0  0  0  0  0  0
   -1.9102   -1.9895    0.0000 C   0  0  0  0  0  0  0  0  0  0  0  0
   -0.4330   -2.2500    0.0000 C   0  0  0  0  0  0  0  0  0  0  0  0
    0.8660   -3.0000    0.0000 C   0  0  0  0  0  0  0  0  0  0  0  0
    2.1651   -2.2500    0.0000 C   0  0  0  0  0  0  0  0  0  0  0  0
    3.6651   -2.2500    0.0000 C   0  0  0  0  0  0  0  0  0  0  0  0
    3.6651   -0.7500    0.0000 C   0  0  0  0  0  0  0  0  0  0  0  0
    3.6651    0.7500    0.0000 C   0  0  0  0  0  0  0  0  0  0  0  0
    2.1651   -0.7500    0.0000 C   0  0  0  0  0  0  0  0  0  0  0  0
    2.5533    0.6989    0.0000 C   0  0  0  0  0  0  0  0  0  0  0  0
    2.9415    2.1478    0.0000 C   0  0  0  0  0  0  0  0  0  0  0  0
    2.8108    3.6421    0.0000 C   0  0  0  0  0  0  0  0  0  0  0  0
    1.5821    2.7817    0.0000 C   0  0  0  0  0  0  0  0  0  0  0  0
    0.5214    3.8424    0.0000 C   0  0  0  0  0  0  0  0  0  0  0  0
   -0.5393    4.9030    0.0000 C   0  0  0  0  0  0  0  0  0  0  0  0
   -1.5999    3.8424    0.0000 O   0  0  0  0  0  0  0  0  0  0  0  0
   -3.0488    4.2306    0.0000 C   0  0  0  0  0  0  0  0  0  0  0  0
   -4.4977    4.6188    0.0000 C   0  0  0  0  0  0  0  0  0  0  0  0
   -4.8859    6.0677    0.0000 O   0  0  0  0  0  0  0  0  0  0  0  0
    0.5214    5.9637    0.0000 C   0  0  0  0  0  0  0  0  0  0  0  0
   -0.5393    7.0243    0.0000 C   0  0  0  0  0  0  0  0  0  0  0  0
   -1.5999    5.9637    0.0000 N   0  0  0  0  0  0  0  0  0  0  0  0
    0.8660    0.0000    0.0000 C   0  0  0  0  0  0  0  0  0  0  0  0
   -0.4330    0.7500    0.0000 C   0  0  0  0  0  0  0  0  0  0  0  0
   -1.9330    0.7500    0.0000 C   0  0  0  0  0  0  0  0  0  0  0  0
   -3.4330    0.7500    0.0000 C   0  0  0  0  0  0  0  0  0  0  0  0
   -3.4330   -0.7500    0.0000 C   0  0  0  0  0  0  0  0  0  0  0  0
   -1.9330   -0.7500    0.0000 C   0  0  0  0  0  0  0  0  0  0  0  0
   -0.4330   -0.7500    0.0000 C   0  0  0  0  0  0  0  0  0  0  0  0
   -7.8191   -0.9476    0.0000 H   0  0  0  0  0  0  0  0  0  0  0  0
   -6.0814    0.2691    0.0000 H   0  0  0  0  0  0  0  0  0  0  0  0
   -6.6023   -2.6853    0.0000 H   0  0  0  0  0  0  0  0  0  0  0  0
   -5.3032   -2.9030    0.0000 H   0  0  0  0  0  0  0  0  0  0  0  0
   -4.9694    0.0278    0.0000 H   0  0  0  0  0  0  0  0  0  0  0  0
   -3.4431   -0.9338    0.0000 H   0  0  0  0  0  0  0  0  0  0  0  0
   -4.9844   -3.8873    0.0000 H   0  0  0  0  0  0  0  0  0  0  0  0
   -2.1707   -3.4667    0.0000 H   0  0  0  0  0  0  0  0  0  0  0  0
   -2.0149   -0.4932    0.0000 H   0  0  0  0  0  0  0  0  0  0  0  0
   -0.9460   -3.6595    0.0000 H   0  0  0  0  0  0  0  0  0  0  0  0
   -0.0982   -4.1491    0.0000 H   0  0  0  0  0  0  0  0  0  0  0  0
    1.6830   -4.2580    0.0000 H   0  0  0  0  0  0  0  0  0  0  0  0
    2.7270   -3.6408    0.0000 H   0  0  0  0  0  0  0  0  0  0  0  0
    5.1651   -2.2500    0.0000 H   0  0  0  0  0  0  0  0  0  0  0  0
    3.6651   -3.7500    0.0000 H   0  0  0  0  0  0  0  0  0  0  0  0
    5.1651   -0.7500    0.0000 H   0  0  0  0  0  0  0  0  0  0  0  0
    4.2027    2.1503    0.0000 H   0  0  0  0  0  0  0  0  0  0  0  0
    5.1651    0.7500    0.0000 H   0  0  0  0  0  0  0  0  0  0  0  0
    2.2096    1.1130    0.0000 H   0  0  0  0  0  0  0  0  0  0  0  0
    4.0531    0.6728    0.0000 H   0  0  0  0  0  0  0  0  0  0  0  0
    1.0679    0.9076    0.0000 H   0  0  0  0  0  0  0  0  0  0  0  0
    4.4406    2.2002    0.0000 H   0  0  0  0  0  0  0  0  0  0  0  0
    4.2597    4.0303    0.0000 H   0  0  0  0  0  0  0  0  0  0  0  0
    2.5247    5.1145    0.0000 H   0  0  0  0  0  0  0  0  0  0  0  0
    0.5783    1.6670    0.0000 H   0  0  0  0  0  0  0  0  0  0  0  0
    1.5821    4.9030    0.0000 H   0  0  0  0  0  0  0  0  0  0  0  0
   -0.6606    2.9189    0.0000 H   0  0  0  0  0  0  0  0  0  0  0  0
   -2.8401    5.7160    0.0000 H   0  0  0  0  0  0  0  0  0  0  0  0
   -3.6108    2.8398    0.0000 H   0  0  0  0  0  0  0  0  0  0  0  0
   -5.5584    3.5582    0.0000 H   0  0  0  0  0  0  0  0  0  0  0  0
    1.5821    7.0243    0.0000 H   0  0  0  0  0  0  0  0  0  0  0  0
    1.8072    5.1912    0.0000 H   0  0  0  0  0  0  0  0  0  0  0  0
   -1.5999    8.0850    0.0000 H   0  0  0  0  0  0  0  0  0  0  0  0
    0.5214    8.0850    0.0000 H   0  0  0  0  0  0  0  0  0  0  0  0
   -3.0887    6.1465    0.0000 H   0  0  0  0  0  0  0  0  0  0  0  0
    0.4526   -1.4419    0.0000 H   0  0  0  0  0  0  0  0  0  0  0  0
   -0.2243    2.2354    0.0000 H   0  0  0  0  0  0  0  0  0  0  0  0
   -1.9330    2.2500    0.0000 H   0  0  0  0  0  0  0  0  0  0  0  0
   -4.9218    0.9328    0.0000 H   0  0  0  0  0  0  0  0  0  0  0  0
   -3.6159    2.2388    0.0000 H   0  0  0  0  0  0  0  0  0  0  0  0
   -3.7960   -2.2054    0.0000 H   0  0  0  0  0  0  0  0  0  0  0  0
   -4.8333   -0.2123    0.0000 H   0  0  0  0  0  0  0  0  0  0  0  0
   -2.2960   -2.2054    0.0000 H   0  0  0  0  0  0  0  0  0  0  0  0
  1  2  1  0
  2  3  1  0
  3  4  1  0
  3  5  1  0
  5  6  1  0
  6  7  1  0
  7  8  1  0
  8  9  1  0
  9 10  1  0
 10 11  1  0
 10 12  1  0
 12 13  1  1
 13 14  1  0
 14 15  1  0
 15 16  1  0
 16 17  1  0
 17 18  1  0
 18 19  1  1
 19 20  1  0
 20 21  1  0
 21 22  2  0
 18 23  1  0
 23 24  1  0
 24 25  1  0
 12 26  1  0
 26 27  1  0
 27 28  1  0
 28 29  1  0
 29 30  1  0
 30 31  1  0
 31 32  1  0
 32  6  1  6
 12  8  1  0
 16 14  1  0
 25 18  1  0
 32 26  1  0
 32 27  1  0
 31 28  1  0
  1 33  1  0
  1 34  1  0
  1 35  1  0
  2 36  1  0
  2 37  1  0
  3 38  1  1
  4 39  1  0
  5 40  1  0
  5 41  1  0
  6 42  1  6
  7 43  1  0
  7 44  1  0
  8 45  1  1
  9 46  1  0
  9 47  1  0
 10 48  1  6
 11 49  1  0
 11 50  1  0
 11 51  1  0
 13 52  1  0
 13 53  1  0
 14 54  1  6
 15 55  1  0
 15 56  1  0
 16 57  1  6
 17 58  1  0
 17 59  1  0
 20 60  1  0
 20 61  1  0
 21 62  1  0
 23 63  1  0
 23 64  1  0
 24 65  1  0
 24 66  1  0
 25 67  1  0
 26 68  1  6
 27 69  1  6
 28 70  1  6
 29 71  1  0
 29 72  1  0
 30 73  1  0
 30 74  1  0
 31 75  1  6
M  END
$$$$
