
     RDKit          2D

 70 72  0  0  0  0  0  0  0  0999 V2000
    6.0530  -15.5950    0.0000 C   0  0  0  0  0  0  0  0  0  0  0  0
    5.6648  -14.1461    0.0000 C   0  0  0  0  0  0  0  0  0  0  0  0
    5.2766  -12.6972    0.0000 C   0  0  0  0  0  0  0  0  0  0  0  0
    4.8884  -11.2483    0.0000 C   0  0  0  0  0  0  0  0  0  0  0  0
    4.5001   -9.7994    0.0000 C   0  0  0  0  0  0  0  0  0  0  0  0
    4.1119   -8.3505    0.0000 C   0  0  0  0  0  0  0  0  0  0  0  0
    5.4714   -7.7166    0.0000 C   0  0  0  0  0  0  0  0  0  0  0  0
    6.5320   -6.6559    0.0000 C   0  0  0  0  0  0  0  0  0  0  0  0
    7.5927   -5.5953    0.0000 C   0  0  0  0  0  0  0  0  0  0  0  0
    8.6533   -4.5346    0.0000 C   0  0  0  0  0  0  0  0  0  0  0  0
    4.2426   -6.8562    0.0000 C   0  0  0  0  0  0  0  0  0  0  0  0
    4.8766   -5.4968    0.0000 C   0  0  0  0  0  0  0  0  0  0  0  0
    5.5105   -4.1373    0.0000 C   0  0  0  0  0  0  0  0  0  0  0  0
    6.1444   -2.7778    0.0000 C   0  0  0  0  0  0  0  0  0  0  0  0
    7.2051   -1.7172    0.0000 C   0  0  0  0  0  0  0  0  0  0  0  0
    7.5933   -3.1661    0.0000 C   0  0  0  0  0  0  0  0  0  0  0  0
    2.7938   -6.4680    0.0000 C   0  0  0  0  0  0  0  0  0  0  0  0
    1.3449   -6.0798    0.0000 C   0  0  0  0  0  0  0  0  0  0  0  0
   -0.1040   -5.6915    0.0000 C   0  0  0  0  0  0  0  0  0  0  0  0
    1.7331   -4.6309    0.0000 C   0  0  0  0  0  0  0  0  0  0  0  0
    2.1213   -3.1820    0.0000 O   0  0  0  0  0  0  0  0  0  0  0  0
    1.0607   -2.1213    0.0000 C   0  0  0  0  0  0  0  0  0  0  0  0
   -0.0000   -1.0607    0.0000 C   0  0  0  0  0  0  0  0  0  0  0  0
    1.0607    0.0000    0.0000 C   0  0  0  0  0  0  0  0  0  0  0  0
    0.0000    1.0607    0.0000 C   0  0  0  0  0  0  0  0  0  0  0  0
   -1.0607    0.0000    0.0000 O   0  0  0  0  0  0  0  0  0  0  0  0
    6.4413  -17.0438    0.0000 H   0  0  0  0  0  0  0  0  0  0  0  0
    7.5019  -15.2067    0.0000 H   0  0  0  0  0  0  0  0  0  0  0  0
    4.6042  -15.9832    0.0000 H   0  0  0  0  0  0  0  0  0  0  0  0
    7.1137  -13.7578    0.0000 H   0  0  0  0  0  0  0  0  0  0  0  0
    4.2159  -14.5343    0.0000 H   0  0  0  0  0  0  0  0  0  0  0  0
    3.8277  -13.0854    0.0000 H   0  0  0  0  0  0  0  0  0  0  0  0
    6.7255  -12.3089    0.0000 H   0  0  0  0  0  0  0  0  0  0  0  0
    6.3373  -10.8601    0.0000 H   0  0  0  0  0  0  0  0  0  0  0  0
    3.4395  -11.6365    0.0000 H   0  0  0  0  0  0  0  0  0  0  0  0
    5.8370   -9.6115    0.0000 H   0  0  0  0  0  0  0  0  0  0  0  0
    3.0512  -10.1876    0.0000 H   0  0  0  0  0  0  0  0  0  0  0  0
    2.6447   -8.6624    0.0000 H   0  0  0  0  0  0  0  0  0  0  0  0
    6.3747   -8.7198    0.0000 H   0  0  0  0  0  0  0  0  0  0  0  0
    7.5927   -7.7166    0.0000 H   0  0  0  0  0  0  0  0  0  0  0  0
    6.0759   -5.8967    0.0000 H   0  0  0  0  0  0  0  0  0  0  0  0
    8.6533   -6.6559    0.0000 H   0  0  0  0  0  0  0  0  0  0  0  0
    6.6692   -4.4132    0.0000 H   0  0  0  0  0  0  0  0  0  0  0  0
    9.8354   -3.6111    0.0000 H   0  0  0  0  0  0  0  0  0  0  0  0
    9.7140   -5.5953    0.0000 H   0  0  0  0  0  0  0  0  0  0  0  0
    8.1972   -3.7754    0.0000 H   0  0  0  0  0  0  0  0  0  0  0  0
    5.6347   -5.7431    0.0000 H   0  0  0  0  0  0  0  0  0  0  0  0
    6.3729   -5.6013    0.0000 H   0  0  0  0  0  0  0  0  0  0  0  0
    6.8700   -4.7712    0.0000 H   0  0  0  0  0  0  0  0  0  0  0  0
    4.1510   -3.5034    0.0000 H   0  0  0  0  0  0  0  0  0  0  0  0
    4.9157   -1.9175    0.0000 H   0  0  0  0  0  0  0  0  0  0  0  0
    6.3447   -0.4884    0.0000 H   0  0  0  0  0  0  0  0  0  0  0  0
    8.5645   -1.0832    0.0000 H   0  0  0  0  0  0  0  0  0  0  0  0
    9.0605   -2.8542    0.0000 H   0  0  0  0  0  0  0  0  0  0  0  0
    7.6457   -4.6651    0.0000 H   0  0  0  0  0  0  0  0  0  0  0  0
    3.3557   -5.0772    0.0000 H   0  0  0  0  0  0  0  0  0  0  0  0
    2.2318   -7.8587    0.0000 H   0  0  0  0  0  0  0  0  0  0  0  0
    0.9566   -7.5286    0.0000 H   0  0  0  0  0  0  0  0  0  0  0  0
   -1.5529   -5.3033    0.0000 H   0  0  0  0  0  0  0  0  0  0  0  0
   -0.4923   -7.1404    0.0000 H   0  0  0  0  0  0  0  0  0  0  0  0
    0.1047   -4.2061    0.0000 H   0  0  0  0  0  0  0  0  0  0  0  0
    0.3423   -4.0689    0.0000 H   0  0  0  0  0  0  0  0  0  0  0  0
    3.2185   -4.8396    0.0000 H   0  0  0  0  0  0  0  0  0  0  0  0
    0.0000   -3.1820    0.0000 H   0  0  0  0  0  0  0  0  0  0  0  0
    2.2427   -1.1979    0.0000 H   0  0  0  0  0  0  0  0  0  0  0  0
   -1.0607   -2.1213    0.0000 H   0  0  0  0  0  0  0  0  0  0  0  0
    2.1213    1.0607    0.0000 H   0  0  0  0  0  0  0  0  0  0  0  0
    2.2427   -0.9235    0.0000 H   0  0  0  0  0  0  0  0  0  0  0  0
   -1.0607    2.1213    0.0000 H   0  0  0  0  0  0  0  0  0  0  0  0
    1.0607    2.1213    0.0000 H   0  0  0  0  0  0  0  0  0  0  0  0
  1  2  1  0
  2  3  1  0
  3  4  1  0
  4  5  1  0
  5  6  1  0
  6  7  1  0
  7  8  1  0
  8  9  1  0
  9 10  1  0
  7 11  1  0
 11 12  1  1
 12 13  1  0
 13 14  1  0
 14 15  1  0
 15 16  1  0
 11 17  1  0
 17 18  1  0
 18 19  1  0
 18 20  1  0
 20 21  1  0
 21 22  1  0
 22 23  1  0
 23 24  1  0
 24 25  1  0
 25 26  1  0
 11  6  1  0
 16 14  1  0
 26 23  1  0
  1 27  1  0
  1 28  1  0
  1 29  1  0
  2 30  1  0
  2 31  1  0
  3 32  1  0
  3 33  1  0
  4 34  1  0
  4 35  1  0
  5 36  1  0
  5 37  1  0
  6 38  1  6
  7 39  1  6
  8 40  1  0
  8 41  1  0
  9 42  1  0
  9 43  1  0
 10 44  1  0
 10 45  1  0
 10 46  1  0
 12 47  1  0
 12 48  1  0
 13 49  1  0
 13 50  1  0
 14 51  1  0
 15 52  1  0
 15 53  1  0
 16 54  1  0
 16 55  1  0
 17 56  1  0
 17 57  1  0
 18 58  1  1
 19 59  1  0
 19 60  1  0
 19 61  1  0
 20 62  1  0
 20 63  1  0
 22 64  1  0
 22 65  1  0
 23 66  1  1
 24 67  1  0
 24 68  1  0
 25 69  1  0
 25 70  1  0
M  END
$$$$
