
     RDKit          3D

 12 14  0  0  0  0  0  0  0  0999 V2000
   17.5464  -24.1457  -18.4026 N   0  0  0  0  0  0  0  0  0  0  0  0
   16.2673  -24.8363  -18.2545 C   0  0  0  0  0  0  0  0  0  0  0  0
   18.4644  -23.9621  -17.3164 C   0  0  0  0  0  0  0  0  0  0  0  0
   19.6434  -23.3811  -17.4228 C   0  0  0  0  0  0  0  0  0  0  0  0
   18.2674  -24.3608  -15.8926 C   0  0  0  0  0  0  0  0  0  0  0  0
   17.6596  -27.2284  -19.4334 Br  0  0  0  0  0  0  0  0  0  0  0  0
   20.2750  -23.3635  -16.1534 N   0  0  0  0  0  0  0  0  0  0  0  0
   16.4768  -26.3540  -18.1659 C   0  0  0  0  0  0  0  0  0  0  0  0
   16.1814  -27.0494  -16.9154 C   0  0  0  0  0  0  0  0  0  0  0  0
   15.3707  -28.2319  -17.1601 C   0  0  0  0  0  0  0  0  0  0  0  0
   15.1957  -27.0674  -18.0417 N   0  0  0  0  0  0  0  0  0  0  0  0
   19.5150  -23.9061  -15.2896 N   0  0  0  0  0  0  0  0  0  0  0  0
  2  1  1  0
  3  1  1  0
  4  3  2  0
  5  3  1  0
  7  4  1  0
  8  2  1  0
  8  6  1  0
  9  8  1  0
 10  9  1  0
 11  8  1  0
 11  9  1  0
 11 10  1  0
 12  5  1  0
 12  7  2  0
M  END
$$$$
