
     RDKit          2D

 20 22  0  0  0  0  0  0  0  0999 V2000
   -1.7321    3.0000    0.0000 O   0  0  0  0  0  0  0  0  0  0  0  0
   -0.4330    2.2500    0.0000 C   0  0  0  0  0  0  0  0  0  0  0  0
    0.8660    3.0000    0.0000 N   0  0  0  0  0  0  0  0  0  0  0  0
    2.1651    2.2500    0.0000 C   0  0  0  0  0  0  0  0  0  0  0  0
    2.1651    0.7500    0.0000 O   0  0  0  0  0  0  0  0  0  0  0  0
    0.8660    0.0000    0.0000 C   0  0  0  0  0  0  0  0  0  0  0  0
   -0.4330    0.7500    0.0000 C   0  0  0  0  0  0  0  0  0  0  0  0
   -0.4330   -0.7500    0.0000 C   0  0  0  0  0  0  0  0  0  0  0  0
   -1.8819   -1.1382    0.0000 C   0  0  0  0  0  0  0  0  0  0  0  0
   -1.4937   -2.5871    0.0000 C   0  0  0  0  0  0  0  0  0  0  0  0
   -0.0448   -2.1989    0.0000 C   0  0  0  0  0  0  0  0  0  0  0  0
    3.4641    3.0000    0.0000 H   0  0  0  0  0  0  0  0  0  0  0  0
    0.3122    0.5734    0.0000 H   0  0  0  0  0  0  0  0  0  0  0  0
   -1.9218    0.9328    0.0000 H   0  0  0  0  0  0  0  0  0  0  0  0
   -3.3308   -1.5265    0.0000 H   0  0  0  0  0  0  0  0  0  0  0  0
   -2.4438    0.2525    0.0000 H   0  0  0  0  0  0  0  0  0  0  0  0
   -1.1054   -4.0360    0.0000 H   0  0  0  0  0  0  0  0  0  0  0  0
   -2.9426   -2.9753    0.0000 H   0  0  0  0  0  0  0  0  0  0  0  0
    1.4041   -1.8107    0.0000 H   0  0  0  0  0  0  0  0  0  0  0  0
    0.3434   -3.6478    0.0000 H   0  0  0  0  0  0  0  0  0  0  0  0
  1  2  2  0
  2  3  1  0
  3  4  2  0
  4  5  1  0
  5  6  1  0
  6  7  1  0
  7  8  1  0
  8  9  1  0
  9 10  1  0
 10 11  1  0
  7  2  1  0
 11  8  1  0
  8  6  1  0
  4 12  1  0
  6 13  1  0
  7 14  1  0
  9 15  1  0
  9 16  1  0
 10 17  1  0
 10 18  1  0
 11 19  1  0
 11 20  1  0
M  END
$$$$
