
     RDKit          2D

 68 70  0  0  0  0  0  0  0  0999 V2000
   -5.2826   -0.5402    0.0000 C   0  0  0  0  0  0  0  0  0  0  0  0
   -3.8560   -1.0037    0.0000 C   0  0  0  0  0  0  0  0  0  0  0  0
   -2.7413    0.0000    0.0000 C   0  0  0  0  0  0  0  0  0  0  0  0
   -3.8560    1.0037    0.0000 C   0  0  0  0  0  0  0  0  0  0  0  0
   -4.9707    2.0074    0.0000 C   0  0  0  0  0  0  0  0  0  0  0  0
   -6.0854    3.0111    0.0000 C   0  0  0  0  0  0  0  0  0  0  0  0
   -2.8523    2.1184    0.0000 O   0  0  0  0  0  0  0  0  0  0  0  0
   -3.3158    3.5450    0.0000 C   0  0  0  0  0  0  0  0  0  0  0  0
   -4.7424    3.0815    0.0000 C   0  0  0  0  0  0  0  0  0  0  0  0
   -1.8892    4.0085    0.0000 C   0  0  0  0  0  0  0  0  0  0  0  0
   -0.7072    4.9320    0.0000 C   0  0  0  0  0  0  0  0  0  0  0  0
    0.4075    3.9283    0.0000 F   0  0  0  0  0  0  0  0  0  0  0  0
   -2.0980    5.4939    0.0000 C   0  0  0  0  0  0  0  0  0  0  0  0
   -1.7861    6.9611    0.0000 O   0  0  0  0  0  0  0  0  0  0  0  0
   -2.9008    7.9648    0.0000 F   0  0  0  0  0  0  0  0  0  0  0  0
   -1.8596    1.2135    0.0000 C   0  0  0  0  0  0  0  0  0  0  0  0
   -0.4330    0.7500    0.0000 C   0  0  0  0  0  0  0  0  0  0  0  0
    0.8660    0.0000    0.0000 C   0  0  0  0  0  0  0  0  0  0  0  0
   -0.4330   -0.7500    0.0000 C   0  0  0  0  0  0  0  0  0  0  0  0
   -1.8596   -1.2135    0.0000 C   0  0  0  0  0  0  0  0  0  0  0  0
   -1.2495   -2.5838    0.0000 C   0  0  0  0  0  0  0  0  0  0  0  0
   -0.6394   -3.9542    0.0000 C   0  0  0  0  0  0  0  0  0  0  0  0
   -0.0293   -5.3245    0.0000 C   0  0  0  0  0  0  0  0  0  0  0  0
   -2.0097   -4.5643    0.0000 C   0  0  0  0  0  0  0  0  0  0  0  0
   -3.3800   -5.1744    0.0000 C   0  0  0  0  0  0  0  0  0  0  0  0
   -4.7503   -5.7845    0.0000 C   0  0  0  0  0  0  0  0  0  0  0  0
   -6.1207   -6.3946    0.0000 C   0  0  0  0  0  0  0  0  0  0  0  0
   -7.4910   -7.0047    0.0000 C   0  0  0  0  0  0  0  0  0  0  0  0
   -6.3973   -1.5439    0.0000 H   0  0  0  0  0  0  0  0  0  0  0  0
   -5.5710    0.2973    0.0000 H   0  0  0  0  0  0  0  0  0  0  0  0
   -3.7253   -2.4980    0.0000 H   0  0  0  0  0  0  0  0  0  0  0  0
   -4.6719    0.4534    0.0000 H   0  0  0  0  0  0  0  0  0  0  0  0
   -5.8877    1.2103    0.0000 H   0  0  0  0  0  0  0  0  0  0  0  0
   -4.7779    2.7809    0.0000 H   0  0  0  0  0  0  0  0  0  0  0  0
   -7.2001    4.0148    0.0000 H   0  0  0  0  0  0  0  0  0  0  0  0
   -5.2251    4.2398    0.0000 H   0  0  0  0  0  0  0  0  0  0  0  0
   -7.0891    1.8964    0.0000 H   0  0  0  0  0  0  0  0  0  0  0  0
   -3.9498    4.9044    0.0000 H   0  0  0  0  0  0  0  0  0  0  0  0
   -6.2388    2.9769    0.0000 H   0  0  0  0  0  0  0  0  0  0  0  0
   -5.0286    4.5539    0.0000 H   0  0  0  0  0  0  0  0  0  0  0  0
   -5.0030    1.6043    0.0000 H   0  0  0  0  0  0  0  0  0  0  0  0
   -1.0288    2.7798    0.0000 H   0  0  0  0  0  0  0  0  0  0  0  0
    0.0877    6.2041    0.0000 H   0  0  0  0  0  0  0  0  0  0  0  0
   -3.5795    5.7286    0.0000 H   0  0  0  0  0  0  0  0  0  0  0  0
   -2.9386    2.2556    0.0000 H   0  0  0  0  0  0  0  0  0  0  0  0
   -1.0870    2.4993    0.0000 H   0  0  0  0  0  0  0  0  0  0  0  0
    0.1771    2.1203    0.0000 H   0  0  0  0  0  0  0  0  0  0  0  0
    1.8302    1.1491    0.0000 H   0  0  0  0  0  0  0  0  0  0  0  0
    1.8302   -1.1491    0.0000 H   0  0  0  0  0  0  0  0  0  0  0  0
    0.3396   -2.0357    0.0000 H   0  0  0  0  0  0  0  0  0  0  0  0
   -3.0575   -2.1163    0.0000 H   0  0  0  0  0  0  0  0  0  0  0  0
   -2.6840   -3.0224    0.0000 H   0  0  0  0  0  0  0  0  0  0  0  0
    0.1850   -2.1453    0.0000 H   0  0  0  0  0  0  0  0  0  0  0  0
    0.7309   -3.3441    0.0000 H   0  0  0  0  0  0  0  0  0  0  0  0
    0.5808   -6.6948    0.0000 H   0  0  0  0  0  0  0  0  0  0  0  0
    1.3410   -4.7144    0.0000 H   0  0  0  0  0  0  0  0  0  0  0  0
   -1.3150   -6.0971    0.0000 H   0  0  0  0  0  0  0  0  0  0  0  0
   -1.5712   -5.9987    0.0000 H   0  0  0  0  0  0  0  0  0  0  0  0
   -2.7823   -3.2785    0.0000 H   0  0  0  0  0  0  0  0  0  0  0  0
   -2.7699   -6.5447    0.0000 H   0  0  0  0  0  0  0  0  0  0  0  0
   -3.9901   -3.8041    0.0000 H   0  0  0  0  0  0  0  0  0  0  0  0
   -5.3604   -4.4142    0.0000 H   0  0  0  0  0  0  0  0  0  0  0  0
   -4.1402   -7.1548    0.0000 H   0  0  0  0  0  0  0  0  0  0  0  0
   -5.5106   -7.7649    0.0000 H   0  0  0  0  0  0  0  0  0  0  0  0
   -6.7308   -5.0243    0.0000 H   0  0  0  0  0  0  0  0  0  0  0  0
   -8.8613   -7.6148    0.0000 H   0  0  0  0  0  0  0  0  0  0  0  0
   -8.1011   -5.6344    0.0000 H   0  0  0  0  0  0  0  0  0  0  0  0
   -6.8809   -8.3750    0.0000 H   0  0  0  0  0  0  0  0  0  0  0  0
  1  2  2  3
  2  3  1  0
  3  4  1  0
  4  5  1  0
  5  6  1  0
  4  7  1  0
  7  8  1  0
  8  9  1  0
  8 10  1  0
 10 11  1  0
 11 12  1  0
 11 13  1  0
 13 14  1  0
 14 15  1  0
  3 16  1  0
 16 17  1  0
 17 18  1  0
 18 19  1  0
 19 20  1  0
 20 21  1  0
 21 22  1  0
 22 23  1  0
 22 24  1  0
 24 25  1  0
 25 26  1  0
 26 27  1  0
 27 28  1  0
 20  3  1  0
 13 10  1  0
 19 17  1  0
  1 29  1  0
  1 30  1  0
  2 31  1  0
  4 32  1  0
  5 33  1  0
  5 34  1  0
  6 35  1  0
  6 36  1  0
  6 37  1  0
  8 38  1  0
  9 39  1  0
  9 40  1  0
  9 41  1  0
 10 42  1  0
 11 43  1  0
 13 44  1  0
 16 45  1  0
 16 46  1  0
 17 47  1  0
 18 48  1  0
 18 49  1  0
 19 50  1  0
 20 51  1  0
 21 52  1  0
 21 53  1  0
 22 54  1  0
 23 55  1  0
 23 56  1  0
 23 57  1  0
 24 58  1  0
 24 59  1  0
 25 60  1  0
 25 61  1  0
 26 62  1  0
 26 63  1  0
 27 64  1  0
 27 65  1  0
 28 66  1  0
 28 67  1  0
 28 68  1  0
M  END
$$$$
