
     RDKit          3D

 41 50  0  0  0  0  0  0  0  0999 V2000
   14.0854  -30.1201   -9.7868 C   0  0  0  0  0  0  0  0  0  0  0  0
   15.1781  -31.0028  -10.2650 C   0  0  0  0  0  0  0  0  0  0  0  0
   16.6134  -31.2078  -11.2841 C   0  0  0  0  0  0  0  0  0  0  0  0
   15.4941  -29.1140  -11.8319 C   0  0  0  0  0  0  0  0  0  0  0  0
   16.6344  -32.5616  -13.0148 C   0  0  0  0  0  0  0  0  0  0  0  0
   17.0447  -29.3916   -9.9311 C   0  0  0  0  0  0  0  0  0  0  0  0
   18.2289  -28.9042   -7.8708 C   0  0  0  0  0  0  0  0  0  0  0  0
   13.3034  -30.8937  -12.0950 C   0  0  0  0  0  0  0  0  0  0  0  0
   18.5641  -32.8389  -10.7119 C   0  0  0  0  0  0  0  0  0  0  0  0
   17.1072  -27.3584   -9.7305 C   0  0  0  0  0  0  0  0  0  0  0  0
   15.3896  -28.8123   -7.0551 C   0  0  0  0  0  0  0  0  0  0  0  0
   13.3525  -29.1064  -12.7707 C   0  0  0  0  0  0  0  0  0  0  0  0
   11.8836  -27.4759  -11.7490 C   0  0  0  0  0  0  0  0  0  0  0  0
   16.8267  -33.4037   -8.4311 C   0  0  0  0  0  0  0  0  0  0  0  0
   15.5857  -27.3254  -11.5872 C   0  0  0  0  0  0  0  0  0  0  0  0
   16.1942  -30.4955   -8.3417 C   0  0  0  0  0  0  0  0  0  0  0  0
   15.3166  -28.9273   -8.7771 C   0  0  0  0  0  0  0  0  0  0  0  0
   11.4636  -27.7139  -13.1909 O   0  0  0  0  0  0  0  0  0  0  0  0
   17.3850  -30.5207   -9.0220 C   0  0  0  0  0  0  0  0  0  0  0  0
   16.1626  -32.1143   -7.8207 C   0  0  0  0  0  0  0  0  0  0  0  0
   11.0685  -29.5801  -11.7913 C   0  0  0  0  0  0  0  0  0  0  0  0
   14.0610  -29.1282  -14.1761 C   0  0  0  0  0  0  0  0  0  0  0  0
    8.5373  -30.2133  -13.2887 C   0  0  0  0  0  0  0  0  0  0  0  0
   14.8667  -29.9407  -13.1470 C   0  0  0  0  0  0  0  0  0  0  0  0
   13.9566  -32.1151  -13.7757 C   0  0  0  0  0  0  0  0  0  0  0  0
   11.9195  -31.6644  -12.9157 C   0  0  0  0  0  0  0  0  0  0  0  0
   17.9936  -31.5851  -11.7561 C   0  0  0  0  0  0  0  0  0  0  0  0
   16.7296  -28.4893  -12.2302 C   0  0  0  0  0  0  0  0  0  0  0  0
   15.5129  -35.0773   -9.8438 C   0  0  0  0  0  0  0  0  0  0  0  0
   10.3116  -30.0510   -9.6375 C   0  0  0  0  0  0  0  0  0  0  0  0
    9.0722  -30.1897   -9.0007 N   0  0  0  0  0  0  0  0  0  0  0  0
    9.7254  -33.4054  -12.2162 C   0  0  0  0  0  0  0  0  0  0  0  0
   11.3522  -30.4510   -8.4562 N   0  0  0  0  0  0  0  0  0  0  0  0
   17.3729  -33.9693   -9.9821 C   0  0  0  0  0  0  0  0  0  0  0  0
   10.5768  -28.1194  -10.2702 N   0  0  0  0  0  0  0  0  0  0  0  0
   10.0283  -32.0281  -10.8030 C   0  0  0  0  0  0  0  0  0  0  0  0
    8.5646  -32.3227  -11.4590 C   0  0  0  0  0  0  0  0  0  0  0  0
   10.4015  -33.3346  -15.1950 C   0  0  0  0  0  0  0  0  0  0  0  0
   10.0724  -30.6282  -15.0042 C   0  0  0  0  0  0  0  0  0  0  0  0
    8.1235  -30.8629  -10.1017 C   0  0  0  0  0  0  0  0  0  0  0  0
    9.6451  -33.7076  -10.0829 C   0  0  0  0  0  0  0  0  0  0  0  0
  2  1  1  0
  3  2  1  0
  4  2  1  0
  5  3  1  0
  8  1  1  0
 10  6  1  0
 12  8  1  0
 13 12  1  0
 15  4  1  0
 16  6  1  0
 16 11  1  0
 17  1  1  0
 17 10  1  0
 17 11  1  0
 18 13  1  0
 19  3  1  0
 19  7  1  0
 19 16  1  0
 20 14  1  0
 20 16  1  0
 22 12  1  0
 23 21  1  0
 24  4  1  0
 24 12  1  0
 24 22  1  0
 25  8  1  0
 26 21  1  0
 26 25  1  0
 27  5  1  0
 27  6  1  0
 27  9  1  0
 28  4  1  0
 28 15  1  0
 31 30  1  0
 33 30  1  0
 34  9  1  0
 34 14  1  0
 34 29  1  0
 35 13  1  0
 35 30  1  0
 36 30  1  0
 36 32  1  0
 37 32  1  0
 37 36  1  0
 38 32  1  0
 39 38  1  0
 40 31  1  0
 40 37  1  0
 41 32  1  0
 41 36  1  0
M  END
$$$$
