
     RDKit          2D

 80 82  0  0  0  0  0  0  0  0999 V2000
    7.6653    1.8565    0.0000 C   0  0  0  0  0  0  0  0  0  0  0  0
    6.1821    1.6330    0.0000 C   0  0  0  0  0  0  0  0  0  0  0  0
    5.2468    2.8057    0.0000 C   0  0  0  0  0  0  0  0  0  0  0  0
    4.3116    3.9785    0.0000 C   0  0  0  0  0  0  0  0  0  0  0  0
    3.3763    5.1512    0.0000 C   0  0  0  0  0  0  0  0  0  0  0  0
    2.4411    6.3239    0.0000 C   0  0  0  0  0  0  0  0  0  0  0  0
    4.0741    1.8705    0.0000 C   0  0  0  0  0  0  0  0  0  0  0  0
    2.9013    0.9352    0.0000 C   0  0  0  0  0  0  0  0  0  0  0  0
    1.7286    0.0000    0.0000 C   0  0  0  0  0  0  0  0  0  0  0  0
    1.0777    1.3515    0.0000 C   0  0  0  0  0  0  0  0  0  0  0  0
   -0.3846    1.6852    0.0000 N   0  0  0  0  0  0  0  0  0  0  0  0
   -1.5574    0.7500    0.0000 C   0  0  0  0  0  0  0  0  0  0  0  0
   -1.5574   -0.7500    0.0000 C   0  0  0  0  0  0  0  0  0  0  0  0
   -0.3846   -1.6852    0.0000 N   0  0  0  0  0  0  0  0  0  0  0  0
   -0.7184   -3.1476    0.0000 C   0  0  0  0  0  0  0  0  0  0  0  0
   -1.0522   -4.6100    0.0000 C   0  0  0  0  0  0  0  0  0  0  0  0
   -1.3860   -6.0724    0.0000 C   0  0  0  0  0  0  0  0  0  0  0  0
   -1.7198   -7.5348    0.0000 C   0  0  0  0  0  0  0  0  0  0  0  0
   -2.0536   -8.9972    0.0000 C   0  0  0  0  0  0  0  0  0  0  0  0
    0.4102   -4.9438    0.0000 C   0  0  0  0  0  0  0  0  0  0  0  0
    1.8726   -5.2776    0.0000 C   0  0  0  0  0  0  0  0  0  0  0  0
    1.9287   -6.7765    0.0000 C   0  0  0  0  0  0  0  0  0  0  0  0
    3.4276   -6.7204    0.0000 C   0  0  0  0  0  0  0  0  0  0  0  0
    4.9266   -6.6644    0.0000 C   0  0  0  0  0  0  0  0  0  0  0  0
    3.3715   -5.2215    0.0000 C   0  0  0  0  0  0  0  0  0  0  0  0
    2.5735   -3.9514    0.0000 C   0  0  0  0  0  0  0  0  0  0  0  0
    1.0777   -1.3515    0.0000 C   0  0  0  0  0  0  0  0  0  0  0  0
    2.5401   -1.6852    0.0000 C   0  0  0  0  0  0  0  0  0  0  0  0
    4.0025   -2.0190    0.0000 C   0  0  0  0  0  0  0  0  0  0  0  0
    5.4649   -2.3528    0.0000 C   0  0  0  0  0  0  0  0  0  0  0  0
    8.6005    0.6838    0.0000 H   0  0  0  0  0  0  0  0  0  0  0  0
    8.2133    3.2528    0.0000 H   0  0  0  0  0  0  0  0  0  0  0  0
    5.8083    0.1803    0.0000 H   0  0  0  0  0  0  0  0  0  0  0  0
    6.4196    3.7409    0.0000 H   0  0  0  0  0  0  0  0  0  0  0  0
    5.4843    4.9137    0.0000 H   0  0  0  0  0  0  0  0  0  0  0  0
    3.5569    3.5147    0.0000 H   0  0  0  0  0  0  0  0  0  0  0  0
    4.5491    6.0864    0.0000 H   0  0  0  0  0  0  0  0  0  0  0  0
    2.2036    4.2160    0.0000 H   0  0  0  0  0  0  0  0  0  0  0  0
    1.5059    7.4967    0.0000 H   0  0  0  0  0  0  0  0  0  0  0  0
    1.2684    5.3887    0.0000 H   0  0  0  0  0  0  0  0  0  0  0  0
    3.6139    7.2592    0.0000 H   0  0  0  0  0  0  0  0  0  0  0  0
    3.4415    2.4905    0.0000 H   0  0  0  0  0  0  0  0  0  0  0  0
    4.8594    0.5925    0.0000 H   0  0  0  0  0  0  0  0  0  0  0  0
    2.4840    1.6144    0.0000 H   0  0  0  0  0  0  0  0  0  0  0  0
    3.9725   -0.1148    0.0000 H   0  0  0  0  0  0  0  0  0  0  0  0
    3.0066   -0.7853    0.0000 H   0  0  0  0  0  0  0  0  0  0  0  0
    1.0777    2.8515    0.0000 H   0  0  0  0  0  0  0  0  0  0  0  0
    1.8275    1.6223    0.0000 H   0  0  0  0  0  0  0  0  0  0  0  0
   -2.9088    1.4008    0.0000 H   0  0  0  0  0  0  0  0  0  0  0  0
   -2.3681   -2.0120    0.0000 H   0  0  0  0  0  0  0  0  0  0  0  0
   -3.0198   -0.4162    0.0000 H   0  0  0  0  0  0  0  0  0  0  0  0
    0.7737   -3.3007    0.0000 H   0  0  0  0  0  0  0  0  0  0  0  0
   -2.2106   -2.9946    0.0000 H   0  0  0  0  0  0  0  0  0  0  0  0
   -2.5146   -4.2762    0.0000 H   0  0  0  0  0  0  0  0  0  0  0  0
   -2.8484   -5.7386    0.0000 H   0  0  0  0  0  0  0  0  0  0  0  0
   -0.0478   -6.7501    0.0000 H   0  0  0  0  0  0  0  0  0  0  0  0
   -3.1822   -7.2010    0.0000 H   0  0  0  0  0  0  0  0  0  0  0  0
   -0.2574   -7.8686    0.0000 H   0  0  0  0  0  0  0  0  0  0  0  0
   -2.3873  -10.4596    0.0000 H   0  0  0  0  0  0  0  0  0  0  0  0
   -0.5912   -9.3310    0.0000 H   0  0  0  0  0  0  0  0  0  0  0  0
   -3.5159   -8.6634    0.0000 H   0  0  0  0  0  0  0  0  0  0  0  0
    0.0764   -6.4062    0.0000 H   0  0  0  0  0  0  0  0  0  0  0  0
    0.9197   -3.5330    0.0000 H   0  0  0  0  0  0  0  0  0  0  0  0
    1.9848   -8.2755    0.0000 H   0  0  0  0  0  0  0  0  0  0  0  0
    0.4878   -7.1937    0.0000 H   0  0  0  0  0  0  0  0  0  0  0  0
    3.4837   -8.2194    0.0000 H   0  0  0  0  0  0  0  0  0  0  0  0
    6.4255   -6.6083    0.0000 H   0  0  0  0  0  0  0  0  0  0  0  0
    4.9827   -8.1633    0.0000 H   0  0  0  0  0  0  0  0  0  0  0  0
    5.0536   -5.1697    0.0000 H   0  0  0  0  0  0  0  0  0  0  0  0
    4.7403   -4.6079    0.0000 H   0  0  0  0  0  0  0  0  0  0  0  0
    3.8001   -3.0880    0.0000 H   0  0  0  0  0  0  0  0  0  0  0  0
    1.3892   -3.0309    0.0000 H   0  0  0  0  0  0  0  0  0  0  0  0
    1.2606   -2.8403    0.0000 H   0  0  0  0  0  0  0  0  0  0  0  0
    2.0306   -3.0960    0.0000 H   0  0  0  0  0  0  0  0  0  0  0  0
    3.0497   -0.2744    0.0000 H   0  0  0  0  0  0  0  0  0  0  0  0
    3.8495   -3.5112    0.0000 H   0  0  0  0  0  0  0  0  0  0  0  0
    4.5121   -0.6082    0.0000 H   0  0  0  0  0  0  0  0  0  0  0  0
    6.9273   -2.6866    0.0000 H   0  0  0  0  0  0  0  0  0  0  0  0
    5.1311   -3.8152    0.0000 H   0  0  0  0  0  0  0  0  0  0  0  0
    5.7987   -0.8904    0.0000 H   0  0  0  0  0  0  0  0  0  0  0  0
  1  2  2  3
  2  3  1  0
  3  4  1  0
  4  5  1  0
  5  6  1  0
  3  7  1  0
  7  8  1  0
  8  9  1  0
  9 10  1  0
 10 11  1  0
 11 12  2  0
 12 13  1  0
 13 14  1  0
 14 15  1  0
 15 16  1  0
 16 17  1  0
 17 18  1  0
 18 19  1  0
 16 20  1  0
 21 20  1  6
 21 22  1  0
 22 23  1  0
 23 24  1  0
 23 25  1  0
 25 26  1  0
 14 27  1  0
 27 28  1  0
 28 29  1  0
 29 30  1  0
 27  9  1  0
 25 21  1  0
 26 21  1  0
  1 31  1  0
  1 32  1  0
  2 33  1  0
  3 34  1  1
  4 35  1  0
  4 36  1  0
  5 37  1  0
  5 38  1  0
  6 39  1  0
  6 40  1  0
  6 41  1  0
  7 42  1  0
  7 43  1  0
  8 44  1  0
  8 45  1  0
  9 46  1  1
 10 47  1  0
 10 48  1  0
 12 49  1  0
 13 50  1  0
 13 51  1  0
 15 52  1  0
 15 53  1  0
 16 54  1  6
 17 55  1  0
 17 56  1  0
 18 57  1  0
 18 58  1  0
 19 59  1  0
 19 60  1  0
 19 61  1  0
 20 62  1  0
 20 63  1  0
 22 64  1  0
 22 65  1  0
 23 66  1  6
 24 67  1  0
 24 68  1  0
 24 69  1  0
 25 70  1  6
 26 71  1  0
 26 72  1  0
 27 73  1  1
 28 74  1  0
 28 75  1  0
 29 76  1  0
 29 77  1  0
 30 78  1  0
 30 79  1  0
 30 80  1  0
M  END
$$$$
