
     RDKit          2D

 79 83  0  0  0  0  0  0  0  0999 V2000
    3.1461   -2.4713    0.0000 C   0  0  0  0  0  0  0  0  0  0  0  0
    1.6972   -2.8595    0.0000 C   0  0  0  0  0  0  0  0  0  0  0  0
    1.0633   -1.5001    0.0000 C   0  0  0  0  0  0  0  0  0  0  0  0
    0.2029   -2.7288    0.0000 C   0  0  0  0  0  0  0  0  0  0  0  0
   -0.1853   -4.1777    0.0000 C   0  0  0  0  0  0  0  0  0  0  0  0
   -1.6342   -3.7895    0.0000 O   0  0  0  0  0  0  0  0  0  0  0  0
   -0.5736   -5.6266    0.0000 C   0  0  0  0  0  0  0  0  0  0  0  0
   -1.9330   -4.9926    0.0000 C   0  0  0  0  0  0  0  0  0  0  0  0
   -2.9937   -3.9320    0.0000 C   0  0  0  0  0  0  0  0  0  0  0  0
   -4.0543   -2.8713    0.0000 C   0  0  0  0  0  0  0  0  0  0  0  0
   -5.1150   -1.8107    0.0000 C   0  0  0  0  0  0  0  0  0  0  0  0
   -6.1757   -0.7500    0.0000 C   0  0  0  0  0  0  0  0  0  0  0  0
   -4.0543   -0.7500    0.0000 S   0  0  0  0  0  6  0  0  0  0  0  0
   -5.5543   -0.7500    0.0000 C   0  0  0  0  0  0  0  0  0  0  0  0
   -2.9937   -1.8107    0.0000 C   0  0  0  0  0  0  0  0  0  0  0  0
   -2.5543   -0.7500    0.0000 C   0  0  0  0  0  0  0  0  0  0  0  0
   -1.4937    0.3107    0.0000 C   0  0  0  0  0  0  0  0  0  0  0  0
   -1.4937    1.8107    0.0000 C   0  0  0  0  0  0  0  0  0  0  0  0
   -2.5543    2.8713    0.0000 C   0  0  0  0  0  0  0  0  0  0  0  0
   -3.3043    4.1704    0.0000 C   0  0  0  0  0  0  0  0  0  0  0  0
   -4.0543    2.8713    0.0000 C   0  0  0  0  0  0  0  0  0  0  0  0
   -5.1150    1.8107    0.0000 C   0  0  0  0  0  0  0  0  0  0  0  0
   -5.1150    0.3107    0.0000 C   0  0  0  0  0  0  0  0  0  0  0  0
   -3.1617   -5.8530    0.0000 C   0  0  0  0  0  0  0  0  0  0  0  0
   -3.0310   -7.3473    0.0000 C   0  0  0  0  0  0  0  0  0  0  0  0
   -1.6715   -7.9812    0.0000 C   0  0  0  0  0  0  0  0  0  0  0  0
   -0.3121   -8.6152    0.0000 C   0  0  0  0  0  0  0  0  0  0  0  0
   -0.4428   -7.1209    0.0000 C   0  0  0  0  0  0  0  0  0  0  0  0
    1.0515   -6.9901    0.0000 C   0  0  0  0  0  0  0  0  0  0  0  0
    4.5950   -2.0831    0.0000 H   0  0  0  0  0  0  0  0  0  0  0  0
    3.5343   -3.9202    0.0000 H   0  0  0  0  0  0  0  0  0  0  0  0
    2.9374   -0.9859    0.0000 H   0  0  0  0  0  0  0  0  0  0  0  0
    2.0091   -4.3267    0.0000 H   0  0  0  0  0  0  0  0  0  0  0  0
    0.0026   -0.4394    0.0000 H   0  0  0  0  0  0  0  0  0  0  0  0
    2.1780   -0.4963    0.0000 H   0  0  0  0  0  0  0  0  0  0  0  0
   -1.0691   -1.9339    0.0000 H   0  0  0  0  0  0  0  0  0  0  0  0
    1.2054   -4.7396    0.0000 H   0  0  0  0  0  0  0  0  0  0  0  0
   -2.9200   -4.5619    0.0000 H   0  0  0  0  0  0  0  0  0  0  0  0
    0.9255   -5.5742    0.0000 H   0  0  0  0  0  0  0  0  0  0  0  0
   -1.3955   -3.5922    0.0000 H   0  0  0  0  0  0  0  0  0  0  0  0
   -1.8116   -3.0085    0.0000 H   0  0  0  0  0  0  0  0  0  0  0  0
   -4.1757   -4.8554    0.0000 H   0  0  0  0  0  0  0  0  0  0  0  0
   -2.6840   -2.2613    0.0000 H   0  0  0  0  0  0  0  0  0  0  0  0
   -5.1150   -3.9320    0.0000 H   0  0  0  0  0  0  0  0  0  0  0  0
   -6.0385   -2.9927    0.0000 H   0  0  0  0  0  0  0  0  0  0  0  0
   -7.3577    0.1735    0.0000 H   0  0  0  0  0  0  0  0  0  0  0  0
   -7.3577   -1.6735    0.0000 H   0  0  0  0  0  0  0  0  0  0  0  0
   -7.0991   -1.9320    0.0000 H   0  0  0  0  0  0  0  0  0  0  0  0
   -3.8715   -2.2388    0.0000 H   0  0  0  0  0  0  0  0  0  0  0  0
   -7.0543   -0.7500    0.0000 H   0  0  0  0  0  0  0  0  0  0  0  0
   -6.0920   -2.1503    0.0000 H   0  0  0  0  0  0  0  0  0  0  0  0
   -5.9173    0.7054    0.0000 H   0  0  0  0  0  0  0  0  0  0  0  0
   -1.8116   -2.7341    0.0000 H   0  0  0  0  0  0  0  0  0  0  0  0
   -3.6037   -3.1810    0.0000 H   0  0  0  0  0  0  0  0  0  0  0  0
   -1.7079   -1.0382    0.0000 H   0  0  0  0  0  0  0  0  0  0  0  0
   -1.2553   -1.5000    0.0000 H   0  0  0  0  0  0  0  0  0  0  0  0
   -2.3974   -2.2418    0.0000 H   0  0  0  0  0  0  0  0  0  0  0  0
   -0.0083    0.5194    0.0000 H   0  0  0  0  0  0  0  0  0  0  0  0
   -0.5909   -0.8873    0.0000 H   0  0  0  0  0  0  0  0  0  0  0  0
   -0.7437    3.1097    0.0000 H   0  0  0  0  0  0  0  0  0  0  0  0
   -0.0083    1.6019    0.0000 H   0  0  0  0  0  0  0  0  0  0  0  0
   -1.3643    3.7845    0.0000 H   0  0  0  0  0  0  0  0  0  0  0  0
   -2.1553    5.1345    0.0000 H   0  0  0  0  0  0  0  0  0  0  0  0
   -4.4534    5.1345    0.0000 H   0  0  0  0  0  0  0  0  0  0  0  0
   -5.2444    3.7845    0.0000 H   0  0  0  0  0  0  0  0  0  0  0  0
   -6.6004    1.6019    0.0000 H   0  0  0  0  0  0  0  0  0  0  0  0
   -5.8650    3.1097    0.0000 H   0  0  0  0  0  0  0  0  0  0  0  0
   -6.3872   -0.4841    0.0000 H   0  0  0  0  0  0  0  0  0  0  0  0
   -6.5639    0.6989    0.0000 H   0  0  0  0  0  0  0  0  0  0  0  0
   -4.6106   -6.2412    0.0000 H   0  0  0  0  0  0  0  0  0  0  0  0
   -3.9567   -4.5810    0.0000 H   0  0  0  0  0  0  0  0  0  0  0  0
   -3.4192   -8.7962    0.0000 H   0  0  0  0  0  0  0  0  0  0  0  0
   -4.5253   -7.2166    0.0000 H   0  0  0  0  0  0  0  0  0  0  0  0
   -2.3055   -9.3407    0.0000 H   0  0  0  0  0  0  0  0  0  0  0  0
   -0.7003  -10.0640    0.0000 H   0  0  0  0  0  0  0  0  0  0  0  0
    1.1551   -8.9271    0.0000 H   0  0  0  0  0  0  0  0  0  0  0  0
    2.5458   -6.8594    0.0000 H   0  0  0  0  0  0  0  0  0  0  0  0
    1.3634   -8.4573    0.0000 H   0  0  0  0  0  0  0  0  0  0  0  0
    1.1039   -5.4910    0.0000 H   0  0  0  0  0  0  0  0  0  0  0  0
  1  2  1  0
  2  3  1  0
  3  4  1  0
  4  5  1  0
  5  6  1  0
  5  7  1  0
  7  8  1  0
  8  9  1  0
  9 10  1  0
 10 11  1  0
 11 12  1  0
 11 13  1  0
 13 14  1  0
 13 15  1  0
 13 16  1  0
 16 17  1  0
 17 18  1  0
 18 19  1  0
 19 20  1  0
 20 21  1  0
 21 22  1  0
 22 23  1  0
  8 24  1  0
 24 25  1  0
 25 26  1  0
 26 27  1  0
 27 28  1  0
 28 29  1  0
  4  2  1  0
 28  7  1  0
 23 13  1  0
 28 26  1  0
 21 19  1  0
  1 30  1  0
  1 31  1  0
  1 32  1  0
  2 33  1  0
  3 34  1  0
  3 35  1  0
  4 36  1  0
  5 37  1  0
  6 38  1  0
  7 39  1  0
  8 40  1  0
  9 41  1  0
  9 42  1  0
 10 43  1  0
 10 44  1  0
 11 45  1  0
 12 46  1  0
 12 47  1  0
 12 48  1  0
 13 49  1  0
 14 50  1  0
 14 51  1  0
 14 52  1  0
 15 53  1  0
 15 54  1  0
 15 55  1  0
 16 56  1  0
 16 57  1  0
 17 58  1  0
 17 59  1  0
 18 60  1  0
 18 61  1  0
 19 62  1  0
 20 63  1  0
 20 64  1  0
 21 65  1  0
 22 66  1  0
 22 67  1  0
 23 68  1  0
 23 69  1  0
 24 70  1  0
 24 71  1  0
 25 72  1  0
 25 73  1  0
 26 74  1  0
 27 75  1  0
 27 76  1  0
 29 77  1  0
 29 78  1  0
 29 79  1  0
M  END
$$$$
