
     RDKit          2D

 73 80  0  0  0  0  0  0  0  0999 V2000
   -5.5508   -0.5857    0.0000 C   0  0  0  0  0  0  0  0  0  0  0  0
   -4.5305   -1.6852    0.0000 C   0  0  0  0  0  0  0  0  0  0  0  0
   -3.0682   -1.3515    0.0000 C   0  0  0  0  0  0  0  0  0  0  0  0
   -3.7190    0.0000    0.0000 C   0  0  0  0  0  0  0  0  0  0  0  0
   -4.8917    0.9352    0.0000 C   0  0  0  0  0  0  0  0  0  0  0  0
   -6.2333    1.6062    0.0000 C   0  0  0  0  0  0  0  0  0  0  0  0
   -6.7604    0.2019    0.0000 C   0  0  0  0  0  0  0  0  0  0  0  0
   -6.0097    3.0895    0.0000 C   0  0  0  0  0  0  0  0  0  0  0  0
   -4.5300    3.3352    0.0000 C   0  0  0  0  0  0  0  0  0  0  0  0
   -3.8390    2.0038    0.0000 C   0  0  0  0  0  0  0  0  0  0  0  0
   -2.8864    0.8452    0.0000 O   0  0  0  0  0  0  0  0  0  0  0  0
   -2.5872    2.8301    0.0000 C   0  0  0  0  0  0  0  0  0  0  0  0
   -1.3353    3.6565    0.0000 C   0  0  0  0  0  0  0  0  0  0  0  0
   -0.0834    4.4828    0.0000 C   0  0  0  0  0  0  0  0  0  0  0  0
   -3.0682    1.3515    0.0000 C   0  0  0  0  0  0  0  0  0  0  0  0
   -2.6749   -1.9159    0.0000 C   0  0  0  0  0  0  0  0  0  0  0  0
   -2.4333   -3.3963    0.0000 C   0  0  0  0  0  0  0  0  0  0  0  0
   -2.9643   -4.7992    0.0000 C   0  0  0  0  0  0  0  0  0  0  0  0
   -3.9258   -3.2465    0.0000 Mg  0  0  0  0  0  2  0  0  0  0  0  0
   -1.2157   -4.2723    0.0000 C   0  0  0  0  0  0  0  0  0  0  0  0
    0.2647   -4.0307    0.0000 C   0  0  0  0  0  0  0  0  0  0  0  0
   -0.6705   -2.8580    0.0000 C   0  0  0  0  0  0  0  0  0  0  0  0
   -1.6058   -1.6852    0.0000 C   0  0  0  0  0  0  0  0  0  0  0  0
   -0.4330   -0.7500    0.0000 C   0  0  0  0  0  0  0  0  0  0  0  0
    0.5022   -1.9227    0.0000 C   0  0  0  0  0  0  0  0  0  0  0  0
    1.4375   -3.0955    0.0000 C   0  0  0  0  0  0  0  0  0  0  0  0
   -0.4330    0.7500    0.0000 C   0  0  0  0  0  0  0  0  0  0  0  0
    0.8660    0.0000    0.0000 C   0  0  0  0  0  0  0  0  0  0  0  0
   -0.1319    1.9641    0.0000 C   0  0  0  0  0  0  0  0  0  0  0  0
   -1.6058    1.6852    0.0000 C   0  0  0  0  0  0  0  0  0  0  0  0
   -1.2720    3.1476    0.0000 C   0  0  0  0  0  0  0  0  0  0  0  0
   -6.9616   -1.0952    0.0000 H   0  0  0  0  0  0  0  0  0  0  0  0
   -5.4686    0.9121    0.0000 H   0  0  0  0  0  0  0  0  0  0  0  0
   -5.1441   -3.0540    0.0000 H   0  0  0  0  0  0  0  0  0  0  0  0
   -3.0682   -2.8515    0.0000 H   0  0  0  0  0  0  0  0  0  0  0  0
   -4.9970   -0.7853    0.0000 H   0  0  0  0  0  0  0  0  0  0  0  0
   -5.8473   -0.2210    0.0000 H   0  0  0  0  0  0  0  0  0  0  0  0
   -7.6850    1.9836    0.0000 H   0  0  0  0  0  0  0  0  0  0  0  0
   -7.4547   -1.1278    0.0000 H   0  0  0  0  0  0  0  0  0  0  0  0
   -8.1647    0.7289    0.0000 H   0  0  0  0  0  0  0  0  0  0  0  0
   -5.3560   -0.3252    0.0000 H   0  0  0  0  0  0  0  0  0  0  0  0
   -7.5082    3.1567    0.0000 H   0  0  0  0  0  0  0  0  0  0  0  0
   -6.0994    4.5868    0.0000 H   0  0  0  0  0  0  0  0  0  0  0  0
   -4.9290    4.7811    0.0000 H   0  0  0  0  0  0  0  0  0  0  0  0
   -3.3078    4.2048    0.0000 H   0  0  0  0  0  0  0  0  0  0  0  0
   -1.4169    0.5442    0.0000 H   0  0  0  0  0  0  0  0  0  0  0  0
   -3.4135    4.0820    0.0000 H   0  0  0  0  0  0  0  0  0  0  0  0
   -1.3670    1.9577    0.0000 H   0  0  0  0  0  0  0  0  0  0  0  0
   -2.1617    4.9083    0.0000 H   0  0  0  0  0  0  0  0  0  0  0  0
   -0.1152    2.7840    0.0000 H   0  0  0  0  0  0  0  0  0  0  0  0
    1.1684    5.3092    0.0000 H   0  0  0  0  0  0  0  0  0  0  0  0
   -0.9098    5.7347    0.0000 H   0  0  0  0  0  0  0  0  0  0  0  0
    0.8893    3.3410    0.0000 H   0  0  0  0  0  0  0  0  0  0  0  0
   -3.6918    2.7157    0.0000 H   0  0  0  0  0  0  0  0  0  0  0  0
   -4.1509   -2.1832    0.0000 H   0  0  0  0  0  0  0  0  0  0  0  0
   -3.8771   -1.0188    0.0000 H   0  0  0  0  0  0  0  0  0  0  0  0
   -3.4954   -6.2020    0.0000 H   0  0  0  0  0  0  0  0  0  0  0  0
   -4.3672   -4.2681    0.0000 H   0  0  0  0  0  0  0  0  0  0  0  0
   -1.6367   -5.4972    0.0000 H   0  0  0  0  0  0  0  0  0  0  0  0
   -5.4255   -3.2797    0.0000 H   0  0  0  0  0  0  0  0  0  0  0  0
   -0.7705   -5.7047    0.0000 H   0  0  0  0  0  0  0  0  0  0  0  0
   -1.9595   -5.5749    0.0000 H   0  0  0  0  0  0  0  0  0  0  0  0
    0.2797   -5.5307    0.0000 H   0  0  0  0  0  0  0  0  0  0  0  0
   -2.1451   -3.1330    0.0000 H   0  0  0  0  0  0  0  0  0  0  0  0
   -1.7737   -0.1947    0.0000 H   0  0  0  0  0  0  0  0  0  0  0  0
    1.6750   -0.9875    0.0000 H   0  0  0  0  0  0  0  0  0  0  0  0
    2.9280   -3.2634    0.0000 H   0  0  0  0  0  0  0  0  0  0  0  0
    2.3660    0.0000    0.0000 H   0  0  0  0  0  0  0  0  0  0  0  0
   -0.2290    3.4610    0.0000 H   0  0  0  0  0  0  0  0  0  0  0  0
    1.3419    2.2430    0.0000 H   0  0  0  0  0  0  0  0  0  0  0  0
   -0.9382    4.6100    0.0000 H   0  0  0  0  0  0  0  0  0  0  0  0
   -2.4064    4.1290    0.0000 H   0  0  0  0  0  0  0  0  0  0  0  0
    0.1388    2.6381    0.0000 H   0  0  0  0  0  0  0  0  0  0  0  0
  1  2  2  3
  2  3  1  0
  3  4  1  0
  4  5  1  0
  5  6  1  0
  6  7  1  0
  6  8  1  0
  8  9  1  0
  9 10  1  0
 10 11  1  0
 10 12  1  0
 12 13  1  0
 13 14  1  0
  4 15  1  0
 15 16  1  0
 16 17  1  0
 17 18  1  0
 17 19  1  0
 17 20  1  0
 20 21  1  0
 21 22  1  0
 22 23  1  0
 23 24  1  0
 24 25  1  0
 25 26  1  0
 26 27  1  0
 27 28  1  0
 28 29  1  0
 29 30  1  0
 30 31  1  0
 23  3  1  0
 27 24  1  0
 10  5  1  0
 30 15  1  0
 26 21  1  0
 30 27  1  0
 25 22  1  0
 28 24  1  0
  1 32  1  0
  1 33  1  0
  2 34  1  0
  3 35  1  0
  4 36  1  0
  5 37  1  0
  6 38  1  0
  7 39  1  0
  7 40  1  0
  7 41  1  0
  8 42  1  0
  8 43  1  0
  9 44  1  0
  9 45  1  0
 11 46  1  0
 12 47  1  0
 12 48  1  0
 13 49  1  0
 13 50  1  0
 14 51  1  0
 14 52  1  0
 14 53  1  0
 15 54  1  0
 16 55  1  0
 16 56  1  0
 18 57  1  0
 18 58  1  0
 18 59  1  0
 19 60  1  0
 20 61  1  0
 20 62  1  0
 21 63  1  0
 22 64  1  0
 23 65  1  0
 25 66  1  0
 26 67  1  0
 28 68  1  0
 29 69  1  0
 29 70  1  0
 31 71  1  0
 31 72  1  0
 31 73  1  0
M  END
$$$$
