
     RDKit          3D

 21 24  0  0  0  0  0  0  0  0999 V2000
   23.3110  -28.8622  -10.7170 O   0  0  0  0  0  0  0  0  0  0  0  0
   28.2499  -30.3270   -7.5651 S   0  0  0  0  0  6  0  0  0  0  0  0
   25.4769  -30.5708  -10.5980 O   0  0  0  0  0  0  0  0  0  0  0  0
   20.2540  -30.0287  -10.2819 C   0  0  0  0  0  0  0  0  0  0  0  0
   21.0622  -32.8307   -9.6794 C   0  0  0  0  0  0  0  0  0  0  0  0
   20.8521  -33.0091  -11.2017 C   0  0  0  0  0  0  0  0  0  0  0  0
   19.4971  -33.7200  -11.5612 C   0  0  0  0  0  0  0  0  0  0  0  0
   22.4771  -32.3784   -9.2947 C   0  0  0  0  0  0  0  0  0  0  0  0
   20.1285  -30.5318  -11.7155 C   0  0  0  0  0  0  0  0  0  0  0  0
   22.6796  -32.4975   -7.7764 C   0  0  0  0  0  0  0  0  0  0  0  0
   23.5604  -31.3874   -7.2098 C   0  0  0  0  0  0  0  0  0  0  0  0
   21.0756  -31.7035  -12.0136 C   0  0  0  0  0  0  0  0  0  0  0  0
   24.3565  -31.8327   -6.0202 C   0  0  0  0  0  0  0  0  0  0  0  0
   25.5604  -32.3941   -6.1820 C   0  0  0  0  0  0  0  0  0  0  0  0
   26.3690  -32.8394   -5.0020 C   0  0  0  0  0  0  0  0  0  0  0  0
   19.6522  -35.2610  -11.6117 C   0  0  0  0  0  0  0  0  0  0  0  0
   20.4192  -35.7179  -12.8661 C   0  0  0  0  0  0  0  0  0  0  0  0
   18.3341  -33.3606  -10.6131 C   0  0  0  0  0  0  0  0  0  0  0  0
   20.0737  -37.1169  -13.3571 C   0  0  0  0  0  0  0  0  0  0  0  0
   22.0559  -31.3399   -6.9996 C   0  0  0  0  0  0  0  0  0  0  0  0
   19.5788  -35.8980  -14.1217 C   0  0  0  0  0  0  0  0  0  0  0  0
  2  1  1  0
  3  2  1  0
  4  2  1  0
  5  2  1  0
  6  5  1  0
  7  6  1  0
  8  5  1  0
  9  4  1  0
 10  2  1  0
 10  8  1  0
 11 10  1  0
 12  6  1  0
 12  9  1  0
 13 11  1  0
 14 13  2  3
 15 14  1  0
 16  7  1  0
 17 16  1  0
 18  7  1  0
 19 17  1  0
 20 10  1  0
 20 11  1  0
 21 17  1  0
 21 19  1  0
M  END
$$$$
