
     RDKit          2D

 48 49  0  0  0  0  0  0  0  0999 V2000
    5.6869    5.7453    0.0000 C   0  0  0  0  0  0  0  0  0  0  0  0
    4.7228    4.5963    0.0000 C   0  0  0  0  0  0  0  0  0  0  0  0
    3.7586    3.4472    0.0000 C   0  0  0  0  0  0  0  0  0  0  0  0
    2.6095    4.4114    0.0000 Cl  0  0  0  0  0  0  0  0  0  0  0  0
    2.7944    2.2981    0.0000 C   0  0  0  0  0  0  0  0  0  0  0  0
    1.8302    1.1491    0.0000 C   0  0  0  0  0  0  0  0  0  0  0  0
    0.8660    0.0000    0.0000 C   0  0  0  0  0  0  0  0  0  0  0  0
   -0.4330    0.7500    0.0000 C   0  0  0  0  0  0  0  0  0  0  0  0
   -1.9102    1.0105    0.0000 C   0  0  0  0  0  0  0  0  0  0  0  0
   -3.3874    1.2709    0.0000 C   0  0  0  0  0  0  0  0  0  0  0  0
   -4.8646    1.5314    0.0000 C   0  0  0  0  0  0  0  0  0  0  0  0
   -4.8646    3.0314    0.0000 C   0  0  0  0  0  0  0  0  0  0  0  0
   -6.3419    1.2709    0.0000 C   0  0  0  0  0  0  0  0  0  0  0  0
   -5.3777    0.1219    0.0000 C   0  0  0  0  0  0  0  0  0  0  0  0
   -6.3419   -1.0272    0.0000 O   0  0  0  0  0  0  0  0  0  0  0  0
   -0.4330   -0.7500    0.0000 C   0  0  0  0  0  0  0  0  0  0  0  0
    0.0800   -2.1595    0.0000 C   0  0  0  0  0  0  0  0  0  0  0  0
    0.5930   -3.5691    0.0000 N   0  0  0  0  0  0  0  0  0  0  0  0
   -0.3711   -4.7181    0.0000 C   0  0  0  0  0  0  0  0  0  0  0  0
    0.1419   -6.1277    0.0000 O   0  0  0  0  0  0  0  0  0  0  0  0
    6.6511    6.8944    0.0000 H   0  0  0  0  0  0  0  0  0  0  0  0
    6.8360    4.7812    0.0000 H   0  0  0  0  0  0  0  0  0  0  0  0
    4.5379    6.7095    0.0000 H   0  0  0  0  0  0  0  0  0  0  0  0
    5.8718    3.6321    0.0000 H   0  0  0  0  0  0  0  0  0  0  0  0
    3.5737    5.5604    0.0000 H   0  0  0  0  0  0  0  0  0  0  0  0
    4.9076    2.4830    0.0000 H   0  0  0  0  0  0  0  0  0  0  0  0
    3.9435    1.3340    0.0000 H   0  0  0  0  0  0  0  0  0  0  0  0
    1.6453    3.2623    0.0000 H   0  0  0  0  0  0  0  0  0  0  0  0
    2.9793    0.1849    0.0000 H   0  0  0  0  0  0  0  0  0  0  0  0
    0.9095    2.1364    0.0000 H   0  0  0  0  0  0  0  0  0  0  0  0
    1.8534   -0.9207    0.0000 H   0  0  0  0  0  0  0  0  0  0  0  0
   -0.1294    2.0654    0.0000 H   0  0  0  0  0  0  0  0  0  0  0  0
   -1.6498    2.4877    0.0000 H   0  0  0  0  0  0  0  0  0  0  0  0
   -2.3050   -0.2805    0.0000 H   0  0  0  0  0  0  0  0  0  0  0  0
   -3.0322    2.4328    0.0000 H   0  0  0  0  0  0  0  0  0  0  0  0
   -3.4581   -0.0772    0.0000 H   0  0  0  0  0  0  0  0  0  0  0  0
   -4.8646    4.5314    0.0000 H   0  0  0  0  0  0  0  0  0  0  0  0
   -6.2046    3.1960    0.0000 H   0  0  0  0  0  0  0  0  0  0  0  0
   -3.6587    3.1795    0.0000 H   0  0  0  0  0  0  0  0  0  0  0  0
   -6.9548    2.4738    0.0000 H   0  0  0  0  0  0  0  0  0  0  0  0
   -7.6409    0.5209    0.0000 H   0  0  0  0  0  0  0  0  0  0  0  0
   -4.2995   -0.6906    0.0000 H   0  0  0  0  0  0  0  0  0  0  0  0
   -5.8288   -2.4367    0.0000 H   0  0  0  0  0  0  0  0  0  0  0  0
   -1.7240   -1.1447    0.0000 H   0  0  0  0  0  0  0  0  0  0  0  0
   -1.3295   -2.6726    0.0000 H   0  0  0  0  0  0  0  0  0  0  0  0
    1.3954   -1.8559    0.0000 H   0  0  0  0  0  0  0  0  0  0  0  0
    2.0703   -3.8296    0.0000 H   0  0  0  0  0  0  0  0  0  0  0  0
   -1.8483   -4.4577    0.0000 H   0  0  0  0  0  0  0  0  0  0  0  0
  1  2  1  0
  2  3  1  0
  3  4  1  0
  3  5  1  0
  5  6  1  0
  6  7  1  0
  7  8  1  0
  8  9  1  0
  9 10  1  0
 10 11  1  0
 11 12  1  0
 11 13  1  0
 13 14  1  0
 14 15  1  0
  8 16  1  0
 16 17  1  0
 17 18  1  0
 18 19  1  0
 19 20  2  0
 16  7  1  0
 14 11  1  0
  1 21  1  0
  1 22  1  0
  1 23  1  0
  2 24  1  0
  2 25  1  0
  3 26  1  0
  5 27  1  0
  5 28  1  0
  6 29  1  0
  6 30  1  0
  7 31  1  0
  8 32  1  0
  9 33  1  0
  9 34  1  0
 10 35  1  0
 10 36  1  0
 12 37  1  0
 12 38  1  0
 12 39  1  0
 13 40  1  0
 13 41  1  0
 14 42  1  0
 15 43  1  0
 16 44  1  0
 17 45  1  0
 17 46  1  0
 18 47  1  0
 19 48  1  0
M  END
$$$$
