
     RDKit          2D

101113  0  0  0  0  0  0  0  0999 V2000
   -8.5589   -0.0046    0.0000 C   0  0  0  0  0  0  0  0  0  0  0  0
   -7.3950   -0.9508    0.0000 C   0  0  0  0  0  0  0  0  0  0  0  0
   -7.9750   -2.3341    0.0000 C   0  0  0  0  0  0  0  0  0  0  0  0
   -7.7151   -3.8114    0.0000 C   0  0  0  0  0  0  0  0  0  0  0  0
   -6.6977   -4.9137    0.0000 C   0  0  0  0  0  0  0  0  0  0  0  0
   -6.5794   -6.4090    0.0000 C   0  0  0  0  0  0  0  0  0  0  0  0
   -5.2459   -5.2910    0.0000 C   0  0  0  0  0  0  0  0  0  0  0  0
   -3.8207   -4.8234    0.0000 N   0  0  0  0  0  0  0  0  0  0  0  0
   -2.8744   -3.6595    0.0000 C   0  0  0  0  0  0  0  0  0  0  0  0
   -4.1734   -2.9095    0.0000 C   0  0  0  0  0  0  0  0  0  0  0  0
   -4.1734   -1.4095    0.0000 C   0  0  0  0  0  0  0  0  0  0  0  0
   -4.6865    0.0000    0.0000 C   0  0  0  0  0  0  0  0  0  0  0  0
   -6.1592   -0.1007    0.0000 O   0  0  0  0  0  0  0  0  0  0  0  0
   -4.1734    1.4095    0.0000 C   0  0  0  0  0  0  0  0  0  0  0  0
   -2.8744    2.1595    0.0000 C   0  0  0  0  0  0  0  0  0  0  0  0
   -1.3972    1.8991    0.0000 C   0  0  0  0  0  0  0  0  0  0  0  0
   -0.4330    0.7500    0.0000 C   0  0  0  0  0  0  0  0  0  0  0  0
    0.8660    0.0000    0.0000 C   0  0  0  0  0  0  0  0  0  0  0  0
   -0.4330   -0.7500    0.0000 C   0  0  0  0  0  0  0  0  0  0  0  0
   -1.3972   -1.8991    0.0000 C   0  0  0  0  0  0  0  0  0  0  0  0
   -0.0199   -2.4932    0.0000 C   0  0  0  0  0  0  0  0  0  0  0  0
    1.3575   -3.0873    0.0000 C   0  0  0  0  0  0  0  0  0  0  0  0
    2.7348   -3.6814    0.0000 C   0  0  0  0  0  0  0  0  0  0  0  0
   -2.8744   -2.1595    0.0000 C   0  0  0  0  0  0  0  0  0  0  0  0
   -2.8744    3.6595    0.0000 C   0  0  0  0  0  0  0  0  0  0  0  0
   -2.8744    5.1595    0.0000 C   0  0  0  0  0  0  0  0  0  0  0  0
   -3.1863    6.6268    0.0000 C   0  0  0  0  0  0  0  0  0  0  0  0
   -4.6781    6.7836    0.0000 C   0  0  0  0  0  0  0  0  0  0  0  0
   -5.2882    5.4132    0.0000 C   0  0  0  0  0  0  0  0  0  0  0  0
   -6.5872    6.1632    0.0000 C   0  0  0  0  0  0  0  0  0  0  0  0
   -4.1734    4.4095    0.0000 C   0  0  0  0  0  0  0  0  0  0  0  0
   -5.4725    3.6595    0.0000 C   0  0  0  0  0  0  0  0  0  0  0  0
   -6.7715    4.4095    0.0000 C   0  0  0  0  0  0  0  0  0  0  0  0
   -5.4725    2.1595    0.0000 C   0  0  0  0  0  0  0  0  0  0  0  0
   -4.0116    2.4997    0.0000 C   0  0  0  0  0  0  0  0  0  0  0  0
   -4.7797    2.5595    0.0000 C   0  0  0  0  0  0  0  0  0  0  0  0
   -2.6962    2.6491    0.0000 C   0  0  0  0  0  0  0  0  0  0  0  0
   -2.4358    4.1263    0.0000 O   0  0  0  0  0  0  0  0  0  0  0  0
   -0.9585    3.8658    0.0000 C   0  0  0  0  0  0  0  0  0  0  0  0
   -2.3896    3.4164    0.0000 C   0  0  0  0  0  0  0  0  0  0  0  0
   -2.6870    4.8866    0.0000 C   0  0  0  0  0  0  0  0  0  0  0  0
   -2.9567    1.1719    0.0000 C   0  0  0  0  0  0  0  0  0  0  0  0
   -1.4795    0.9114    0.0000 C   0  0  0  0  0  0  0  0  0  0  0  0
   -1.2190    2.3886    0.0000 C   0  0  0  0  0  0  0  0  0  0  0  0
   -9.9603   -0.5394    0.0000 H   0  0  0  0  0  0  0  0  0  0  0  0
   -8.3213    1.4765    0.0000 H   0  0  0  0  0  0  0  0  0  0  0  0
   -9.3651   -2.8977    0.0000 H   0  0  0  0  0  0  0  0  0  0  0  0
   -9.0926   -1.3336    0.0000 H   0  0  0  0  0  0  0  0  0  0  0  0
   -8.5798   -5.0371    0.0000 H   0  0  0  0  0  0  0  0  0  0  0  0
   -9.2141   -3.7562    0.0000 H   0  0  0  0  0  0  0  0  0  0  0  0
   -7.9886   -5.6777    0.0000 H   0  0  0  0  0  0  0  0  0  0  0  0
   -6.4611   -7.9044    0.0000 H   0  0  0  0  0  0  0  0  0  0  0  0
   -8.0747   -6.5274    0.0000 H   0  0  0  0  0  0  0  0  0  0  0  0
   -5.0808   -6.4739    0.0000 H   0  0  0  0  0  0  0  0  0  0  0  0
   -4.1992   -6.3653    0.0000 H   0  0  0  0  0  0  0  0  0  0  0  0
   -5.7504   -6.7036    0.0000 H   0  0  0  0  0  0  0  0  0  0  0  0
   -2.9705   -6.0592    0.0000 H   0  0  0  0  0  0  0  0  0  0  0  0
   -2.1244   -4.9586    0.0000 H   0  0  0  0  0  0  0  0  0  0  0  0
   -5.4725   -3.6595    0.0000 H   0  0  0  0  0  0  0  0  0  0  0  0
   -5.6507   -1.6700    0.0000 H   0  0  0  0  0  0  0  0  0  0  0  0
   -6.1419   -0.3630    0.0000 H   0  0  0  0  0  0  0  0  0  0  0  0
   -2.1473    3.4715    0.0000 H   0  0  0  0  0  0  0  0  0  0  0  0
   -1.0257    3.3523    0.0000 H   0  0  0  0  0  0  0  0  0  0  0  0
   -0.1026    2.6566    0.0000 H   0  0  0  0  0  0  0  0  0  0  0  0
    0.6640    1.7730    0.0000 H   0  0  0  0  0  0  0  0  0  0  0  0
    1.8302    1.1491    0.0000 H   0  0  0  0  0  0  0  0  0  0  0  0
    1.9631   -1.0230    0.0000 H   0  0  0  0  0  0  0  0  0  0  0  0
    0.6640   -1.7730    0.0000 H   0  0  0  0  0  0  0  0  0  0  0  0
   -1.5713   -3.3889    0.0000 H   0  0  0  0  0  0  0  0  0  0  0  0
   -0.6140   -3.8705    0.0000 H   0  0  0  0  0  0  0  0  0  0  0  0
    0.7377   -1.1986    0.0000 H   0  0  0  0  0  0  0  0  0  0  0  0
    0.7633   -4.4646    0.0000 H   0  0  0  0  0  0  0  0  0  0  0  0
    2.1150   -1.7927    0.0000 H   0  0  0  0  0  0  0  0  0  0  0  0
    4.1121   -4.2755    0.0000 H   0  0  0  0  0  0  0  0  0  0  0  0
    2.1407   -5.0587    0.0000 H   0  0  0  0  0  0  0  0  0  0  0  0
    3.3289   -2.3041    0.0000 H   0  0  0  0  0  0  0  0  0  0  0  0
   -4.2747    3.1219    0.0000 H   0  0  0  0  0  0  0  0  0  0  0  0
   -1.6945    6.7836    0.0000 H   0  0  0  0  0  0  0  0  0  0  0  0
   -3.1863    8.1268    0.0000 H   0  0  0  0  0  0  0  0  0  0  0  0
   -4.3662    8.2508    0.0000 H   0  0  0  0  0  0  0  0  0  0  0  0
   -6.0375    7.4175    0.0000 H   0  0  0  0  0  0  0  0  0  0  0  0
   -6.4373    4.4491    0.0000 H   0  0  0  0  0  0  0  0  0  0  0  0
   -7.8862    6.9132    0.0000 H   0  0  0  0  0  0  0  0  0  0  0  0
   -7.7530    5.2193    0.0000 H   0  0  0  0  0  0  0  0  0  0  0  0
   -6.0011    7.5440    0.0000 H   0  0  0  0  0  0  0  0  0  0  0  0
   -8.1523    4.9956    0.0000 H   0  0  0  0  0  0  0  0  0  0  0  0
   -7.5215    3.1105    0.0000 H   0  0  0  0  0  0  0  0  0  0  0  0
   -6.7193    5.9086    0.0000 H   0  0  0  0  0  0  0  0  0  0  0  0
   -6.7715    1.4095    0.0000 H   0  0  0  0  0  0  0  0  0  0  0  0
   -3.6459    1.0449    0.0000 H   0  0  0  0  0  0  0  0  0  0  0  0
   -2.5266    2.7112    0.0000 H   0  0  0  0  0  0  0  0  0  0  0  0
   -3.4924    4.2460    0.0000 H   0  0  0  0  0  0  0  0  0  0  0  0
    0.2702    4.7262    0.0000 H   0  0  0  0  0  0  0  0  0  0  0  0
   -3.8346    3.8190    0.0000 H   0  0  0  0  0  0  0  0  0  0  0  0
   -2.6198    6.3851    0.0000 H   0  0  0  0  0  0  0  0  0  0  0  0
   -1.2168    5.1840    0.0000 H   0  0  0  0  0  0  0  0  0  0  0  0
   -4.1661    5.1360    0.0000 H   0  0  0  0  0  0  0  0  0  0  0  0
   -3.7954   -0.0718    0.0000 H   0  0  0  0  0  0  0  0  0  0  0  0
   -0.1092    0.3012    0.0000 H   0  0  0  0  0  0  0  0  0  0  0  0
   -1.7400   -0.5658    0.0000 H   0  0  0  0  0  0  0  0  0  0  0  0
   -2.6535    2.8272    0.0000 H   0  0  0  0  0  0  0  0  0  0  0  0
  1  2  2  3
  2  3  1  0
  3  4  1  0
  4  5  1  0
  5  6  1  0
  5  7  1  0
  7  8  1  0
  8  9  1  0
  9 10  1  0
 10 11  1  0
 11 12  1  0
 12 13  1  0
 12 14  1  0
 14 15  1  0
 15 16  1  0
 16 17  1  0
 17 18  1  0
 18 19  1  0
 19 20  1  0
 20 21  1  0
 21 22  1  0
 22 23  1  0
 20 24  1  0
 15 25  1  0
 25 26  1  0
 26 27  1  0
 27 28  1  0
 28 29  1  0
 29 30  1  0
 29 31  1  0
 31 32  1  0
 32 33  1  0
 32 34  1  0
 34 35  1  0
 32 36  1  0
 36 37  1  0
 37 38  1  0
 38 39  1  0
 39 40  1  0
 40 41  1  0
 40 42  1  0
 42 43  1  0
 43 44  1  0
 13  2  1  0
 34 14  1  0
 42 37  1  0
 24  9  1  0
 31 25  1  0
 44 37  1  0
 24 10  1  0
 31 26  1  0
 44 39  1  0
 24 11  1  0
 35 26  1  0
 36 14  1  0
 19 17  1  0
  1 45  1  0
  1 46  1  0
  3 47  1  0
  3 48  1  0
  4 49  1  0
  4 50  1  0
  5 51  1  0
  6 52  1  0
  6 53  1  0
  6 54  1  0
  7 55  1  0
  7 56  1  0
  8 57  1  0
  9 58  1  0
 10 59  1  0
 11 60  1  0
 12 61  1  0
 15 62  1  0
 16 63  1  0
 16 64  1  0
 17 65  1  0
 18 66  1  0
 18 67  1  0
 19 68  1  0
 20 69  1  0
 21 70  1  0
 21 71  1  0
 22 72  1  0
 22 73  1  0
 23 74  1  0
 23 75  1  0
 23 76  1  0
 25 77  1  0
 27 78  1  0
 27 79  1  0
 28 80  1  0
 28 81  1  0
 29 82  1  0
 30 83  1  0
 30 84  1  0
 30 85  1  0
 33 86  1  0
 33 87  1  0
 33 88  1  0
 34 89  1  0
 35 90  1  0
 35 91  1  0
 36 92  1  0
 39 93  1  0
 40 94  1  0
 41 95  1  0
 41 96  1  0
 41 97  1  0
 42 98  1  0
 43 99  1  0
 43100  1  0
 44101  1  0
M  END
$$$$
