
     RDKit          2D

 53 59  0  0  0  0  0  0  0  0999 V2000
    1.6689    2.2771    0.0000 C   0  0  0  0  0  0  0  0  0  0  0  0
    0.1771    2.1203    0.0000 C   0  0  0  0  0  0  0  0  0  0  0  0
   -0.4330    0.7500    0.0000 C   0  0  0  0  0  0  0  0  0  0  0  0
    0.8660    0.0000    0.0000 S   0  0  0  0  0  0  0  0  0  0  0  0
   -0.4330   -0.7500    0.0000 C   0  0  0  0  0  0  0  0  0  0  0  0
   -1.8596   -1.2135    0.0000 C   0  0  0  0  0  0  0  0  0  0  0  0
   -2.7413    0.0000    0.0000 C   0  0  0  0  0  0  0  0  0  0  0  0
   -4.2331    0.1568    0.0000 C   0  0  0  0  0  0  0  0  0  0  0  0
   -4.8432    1.5271    0.0000 C   0  0  0  0  0  0  0  0  0  0  0  0
   -5.7871    2.6928    0.0000 C   0  0  0  0  0  0  0  0  0  0  0  0
   -6.9529    1.7488    0.0000 C   0  0  0  0  0  0  0  0  0  0  0  0
   -7.4904    0.3485    0.0000 C   0  0  0  0  0  0  0  0  0  0  0  0
   -8.0280   -1.0519    0.0000 C   0  0  0  0  0  0  0  0  0  0  0  0
   -9.5004   -0.7657    0.0000 C   0  0  0  0  0  0  0  0  0  0  0  0
  -10.9728   -0.4795    0.0000 C   0  0  0  0  0  0  0  0  0  0  0  0
   -6.5464   -0.8172    0.0000 C   0  0  0  0  0  0  0  0  0  0  0  0
   -6.0089    0.5831    0.0000 C   0  0  0  0  0  0  0  0  0  0  0  0
   -3.9615    2.7406    0.0000 C   0  0  0  0  0  0  0  0  0  0  0  0
   -3.5480    4.1825    0.0000 C   0  0  0  0  0  0  0  0  0  0  0  0
   -3.1346    5.6244    0.0000 C   0  0  0  0  0  0  0  0  0  0  0  0
   -2.7211    7.0663    0.0000 C   0  0  0  0  0  0  0  0  0  0  0  0
   -2.4697    2.5838    0.0000 C   0  0  0  0  0  0  0  0  0  0  0  0
   -1.8596    1.2135    0.0000 C   0  0  0  0  0  0  0  0  0  0  0  0
    2.2790    3.6474    0.0000 H   0  0  0  0  0  0  0  0  0  0  0  0
    2.5506    1.0636    0.0000 H   0  0  0  0  0  0  0  0  0  0  0  0
   -0.5501    3.4323    0.0000 H   0  0  0  0  0  0  0  0  0  0  0  0
    0.1771   -2.1203    0.0000 H   0  0  0  0  0  0  0  0  0  0  0  0
   -1.2495   -2.5838    0.0000 H   0  0  0  0  0  0  0  0  0  0  0  0
   -3.0575   -2.1163    0.0000 H   0  0  0  0  0  0  0  0  0  0  0  0
   -3.3488   -1.0522    0.0000 H   0  0  0  0  0  0  0  0  0  0  0  0
   -5.6885   -0.2061    0.0000 H   0  0  0  0  0  0  0  0  0  0  0  0
   -4.2967   -1.0565    0.0000 H   0  0  0  0  0  0  0  0  0  0  0  0
   -6.7311    3.8585    0.0000 H   0  0  0  0  0  0  0  0  0  0  0  0
   -5.2334    3.2663    0.0000 H   0  0  0  0  0  0  0  0  0  0  0  0
   -8.1664    2.6305    0.0000 H   0  0  0  0  0  0  0  0  0  0  0  0
   -8.0541   -2.5517    0.0000 H   0  0  0  0  0  0  0  0  0  0  0  0
   -9.7866   -2.2381    0.0000 H   0  0  0  0  0  0  0  0  0  0  0  0
   -9.2142    0.7068    0.0000 H   0  0  0  0  0  0  0  0  0  0  0  0
  -12.4453   -0.1933    0.0000 H   0  0  0  0  0  0  0  0  0  0  0  0
  -10.6866    0.9930    0.0000 H   0  0  0  0  0  0  0  0  0  0  0  0
  -11.2591   -1.9519    0.0000 H   0  0  0  0  0  0  0  0  0  0  0  0
   -5.6025   -1.9830    0.0000 H   0  0  0  0  0  0  0  0  0  0  0  0
   -4.6300    3.1748    0.0000 H   0  0  0  0  0  0  0  0  0  0  0  0
   -2.0665    3.9479    0.0000 H   0  0  0  0  0  0  0  0  0  0  0  0
   -4.9899    4.5960    0.0000 H   0  0  0  0  0  0  0  0  0  0  0  0
   -4.5765    6.0379    0.0000 H   0  0  0  0  0  0  0  0  0  0  0  0
   -1.6927    5.2110    0.0000 H   0  0  0  0  0  0  0  0  0  0  0  0
   -2.3077    8.5082    0.0000 H   0  0  0  0  0  0  0  0  0  0  0  0
   -1.2792    6.6529    0.0000 H   0  0  0  0  0  0  0  0  0  0  0  0
   -4.1630    7.4798    0.0000 H   0  0  0  0  0  0  0  0  0  0  0  0
   -1.1453    3.2881    0.0000 H   0  0  0  0  0  0  0  0  0  0  0  0
   -2.3912    4.0818    0.0000 H   0  0  0  0  0  0  0  0  0  0  0  0
   -0.7275    2.1976    0.0000 H   0  0  0  0  0  0  0  0  0  0  0  0
  1  2  2  3
  2  3  1  0
  3  4  1  0
  4  5  1  0
  5  6  1  0
  6  7  1  0
  7  8  1  0
  8  9  1  0
  9 10  1  0
 10 11  1  0
 11 12  1  0
 12 13  1  0
 13 14  1  0
 14 15  1  0
 13 16  1  0
 16 17  1  0
  9 18  1  0
 18 19  1  0
 19 20  1  0
 20 21  1  0
 18 22  1  0
 22 23  1  0
  5  3  1  0
 23  7  1  0
 23  3  1  0
 17  9  1  0
 17 11  1  0
 16 12  1  0
 17 12  1  0
  1 24  1  0
  1 25  1  0
  2 26  1  0
  5 27  1  0
  6 28  1  0
  6 29  1  0
  7 30  1  0
  8 31  1  0
  8 32  1  0
 10 33  1  0
 10 34  1  0
 11 35  1  0
 13 36  1  0
 14 37  1  0
 14 38  1  0
 15 39  1  0
 15 40  1  0
 15 41  1  0
 16 42  1  0
 18 43  1  0
 19 44  1  0
 19 45  1  0
 20 46  1  0
 20 47  1  0
 21 48  1  0
 21 49  1  0
 21 50  1  0
 22 51  1  0
 22 52  1  0
 23 53  1  0
M  END
$$$$
