
     RDKit          2D

 66 73  0  0  0  0  0  0  0  0999 V2000
   -1.4691   -2.4401    0.0000 C   0  0  0  0  0  0  0  0  0  0  0  0
   -1.6927   -0.9568    0.0000 C   0  0  0  0  0  0  0  0  0  0  0  0
   -1.9163    0.5264    0.0000 C   0  0  0  0  0  0  0  0  0  0  0  0
   -2.1398    2.0097    0.0000 C   0  0  0  0  0  0  0  0  0  0  0  0
   -0.6704    3.8119    0.0000 C   0  0  0  0  0  0  0  0  0  0  0  0
   -0.8493    5.3012    0.0000 C   0  0  0  0  0  0  0  0  0  0  0  0
    0.7652    4.2467    0.0000 C   0  0  0  0  0  0  0  0  0  0  0  0
    1.9656    5.1462    0.0000 C   0  0  0  0  0  0  0  0  0  0  0  0
    3.1659    6.0457    0.0000 C   0  0  0  0  0  0  0  0  0  0  0  0
    3.9862    7.3015    0.0000 C   0  0  0  0  0  0  0  0  0  0  0  0
    2.4885    7.3840    0.0000 C   0  0  0  0  0  0  0  0  0  0  0  0
    2.3097    8.8733    0.0000 C   0  0  0  0  0  0  0  0  0  0  0  0
    2.1308   10.3626    0.0000 C   0  0  0  0  0  0  0  0  0  0  0  0
    0.8204    8.6945    0.0000 C   0  0  0  0  0  0  0  0  0  0  0  0
    3.7990    9.0521    0.0000 C   0  0  0  0  0  0  0  0  0  0  0  0
    1.8595    3.2207    0.0000 C   0  0  0  0  0  0  0  0  0  0  0  0
    2.7045    1.9814    0.0000 C   0  0  0  0  0  0  0  0  0  0  0  0
    2.2623    0.5480    0.0000 C   0  0  0  0  0  0  0  0  0  0  0  0
    0.8660    0.0000    0.0000 N   0  0  0  0  0  0  0  0  0  0  0  0
   -0.4330    0.7500    0.0000 C   0  0  0  0  0  0  0  0  0  0  0  0
   -0.6566    2.2332    0.0000 C   0  0  0  0  0  0  0  0  0  0  0  0
    0.3637    3.3328    0.0000 C   0  0  0  0  0  0  0  0  0  0  0  0
   -0.4330   -0.7500    0.0000 C   0  0  0  0  0  0  0  0  0  0  0  0
   -1.7321   -1.5000    0.0000 C   0  0  0  0  0  0  0  0  0  0  0  0
   -1.7321   -3.0000    0.0000 C   0  0  0  0  0  0  0  0  0  0  0  0
   -0.4330   -3.7500    0.0000 C   0  0  0  0  0  0  0  0  0  0  0  0
   -0.4330   -2.2500    0.0000 C   0  0  0  0  0  0  0  0  0  0  0  0
   -1.2456   -3.9233    0.0000 H   0  0  0  0  0  0  0  0  0  0  0  0
   -2.9524   -2.6636    0.0000 H   0  0  0  0  0  0  0  0  0  0  0  0
    0.0241   -2.5820    0.0000 H   0  0  0  0  0  0  0  0  0  0  0  0
   -0.1994   -1.0988    0.0000 H   0  0  0  0  0  0  0  0  0  0  0  0
   -3.1921   -0.9979    0.0000 H   0  0  0  0  0  0  0  0  0  0  0  0
   -3.3995    0.3029    0.0000 H   0  0  0  0  0  0  0  0  0  0  0  0
   -3.3467    2.9004    0.0000 H   0  0  0  0  0  0  0  0  0  0  0  0
   -2.1469    4.0764    0.0000 H   0  0  0  0  0  0  0  0  0  0  0  0
   -1.0281    6.7905    0.0000 H   0  0  0  0  0  0  0  0  0  0  0  0
   -2.3386    5.1224    0.0000 H   0  0  0  0  0  0  0  0  0  0  0  0
    0.5525    5.8351    0.0000 H   0  0  0  0  0  0  0  0  0  0  0  0
    0.2560    5.6576    0.0000 H   0  0  0  0  0  0  0  0  0  0  0  0
    0.8023    6.0932    0.0000 H   0  0  0  0  0  0  0  0  0  0  0  0
    3.0047    4.0644    0.0000 H   0  0  0  0  0  0  0  0  0  0  0  0
    4.2602    5.0198    0.0000 H   0  0  0  0  0  0  0  0  0  0  0  0
    5.3654    6.7117    0.0000 H   0  0  0  0  0  0  0  0  0  0  0  0
    4.6708    8.6362    0.0000 H   0  0  0  0  0  0  0  0  0  0  0  0
    1.0529    6.9493    0.0000 H   0  0  0  0  0  0  0  0  0  0  0  0
    1.9520   11.8519    0.0000 H   0  0  0  0  0  0  0  0  0  0  0  0
    3.5872   10.7217    0.0000 H   0  0  0  0  0  0  0  0  0  0  0  0
    0.6308   10.3667    0.0000 H   0  0  0  0  0  0  0  0  0  0  0  0
   -0.6689    8.5157    0.0000 H   0  0  0  0  0  0  0  0  0  0  0  0
    0.4613   10.1509    0.0000 H   0  0  0  0  0  0  0  0  0  0  0  0
    0.6335    7.2062    0.0000 H   0  0  0  0  0  0  0  0  0  0  0  0
    5.2883    9.2310    0.0000 H   0  0  0  0  0  0  0  0  0  0  0  0
    3.8030   10.5521    0.0000 H   0  0  0  0  0  0  0  0  0  0  0  0
    4.3329    7.6504    0.0000 H   0  0  0  0  0  0  0  0  0  0  0  0
    2.7622    4.4187    0.0000 H   0  0  0  0  0  0  0  0  0  0  0  0
    3.7247    3.0809    0.0000 H   0  0  0  0  0  0  0  0  0  0  0  0
    4.0852    1.3953    0.0000 H   0  0  0  0  0  0  0  0  0  0  0  0
    3.7333    0.2544    0.0000 H   0  0  0  0  0  0  0  0  0  0  0  0
    2.4859   -0.9352    0.0000 H   0  0  0  0  0  0  0  0  0  0  0  0
   -1.3575    3.5594    0.0000 H   0  0  0  0  0  0  0  0  0  0  0  0
   -0.5802    4.4986    0.0000 H   0  0  0  0  0  0  0  0  0  0  0  0
    0.6278    4.8094    0.0000 H   0  0  0  0  0  0  0  0  0  0  0  0
   -3.1128   -0.9139    0.0000 H   0  0  0  0  0  0  0  0  0  0  0  0
   -3.0311   -3.7500    0.0000 H   0  0  0  0  0  0  0  0  0  0  0  0
   -0.9460   -5.1595    0.0000 H   0  0  0  0  0  0  0  0  0  0  0  0
    1.0442   -4.0105    0.0000 H   0  0  0  0  0  0  0  0  0  0  0  0
  1  2  1  0
  2  3  1  0
  3  4  1  0
  4  5  1  0
  5  6  1  0
  5  7  1  0
  7  8  1  0
  8  9  1  0
  9 10  1  0
 10 11  1  0
 11 12  1  0
 12 13  1  0
 12 14  1  0
 12 15  1  0
  7 16  1  0
 16 17  1  0
 17 18  1  0
 18 19  1  0
 19 20  1  0
 20 21  1  0
 21 22  1  0
 20 23  1  0
 23 24  1  0
 24 25  1  0
 25 26  1  0
 26 27  1  0
 20  3  1  0
 27 23  1  0
 21  4  1  0
 27 24  1  0
 11  9  1  0
 22 16  1  0
 27 25  1  0
 23 19  1  0
  1 28  1  0
  1 29  1  0
  1 30  1  0
  2 31  1  0
  2 32  1  0
  3 33  1  0
  4 34  1  0
  5 35  1  0
  6 36  1  0
  6 37  1  0
  6 38  1  0
  7 39  1  0
  8 40  1  0
  8 41  1  0
  9 42  1  0
 10 43  1  0
 10 44  1  0
 11 45  1  0
 13 46  1  0
 13 47  1  0
 13 48  1  0
 14 49  1  0
 14 50  1  0
 14 51  1  0
 15 52  1  0
 15 53  1  0
 15 54  1  0
 16 55  1  0
 17 56  1  0
 17 57  1  0
 18 58  1  0
 18 59  1  0
 21 60  1  0
 22 61  1  0
 22 62  1  0
 24 63  1  0
 25 64  1  0
 26 65  1  0
 26 66  1  0
M  END
$$$$
