
     RDKit          2D

104110  0  0  0  0  0  0  0  0999 V2000
    4.8825    0.8876    0.0000 C   0  0  0  0  0  0  0  0  0  0  0  0
    3.3864    0.9962    0.0000 C   0  0  0  0  0  0  0  0  0  0  0  0
    1.8904    1.1049    0.0000 C   0  0  0  0  0  0  0  0  0  0  0  0
    0.3943    1.2135    0.0000 C   0  0  0  0  0  0  0  0  0  0  0  0
    1.2760    0.0000    0.0000 C   0  0  0  0  0  0  0  0  0  0  0  0
    0.3943   -1.2135    0.0000 C   0  0  0  0  0  0  0  0  0  0  0  0
   -1.0323   -0.7500    0.0000 C   0  0  0  0  0  0  0  0  0  0  0  0
   -1.3442   -2.2172    0.0000 C   0  0  0  0  0  0  0  0  0  0  0  0
   -1.6560   -3.6844    0.0000 C   0  0  0  0  0  0  0  0  0  0  0  0
   -1.9679   -5.1517    0.0000 C   0  0  0  0  0  0  0  0  0  0  0  0
   -2.2798   -6.6189    0.0000 C   0  0  0  0  0  0  0  0  0  0  0  0
   -3.1232   -3.3726    0.0000 C   0  0  0  0  0  0  0  0  0  0  0  0
   -4.5905   -3.0607    0.0000 C   0  0  0  0  0  0  0  0  0  0  0  0
   -5.5942   -4.1754    0.0000 N   0  0  0  0  0  0  0  0  0  0  0  0
   -1.0323    0.7500    0.0000 C   0  0  0  0  0  0  0  0  0  0  0  0
   -2.5109    1.0025    0.0000 C   0  0  0  0  0  0  0  0  0  0  0  0
   -3.7027    1.9133    0.0000 C   0  0  0  0  0  0  0  0  0  0  0  0
   -4.3348    3.2736    0.0000 C   0  0  0  0  0  0  0  0  0  0  0  0
   -4.2624    4.7718    0.0000 C   0  0  0  0  0  0  0  0  0  0  0  0
   -5.6890    4.3083    0.0000 C   0  0  0  0  0  0  0  0  0  0  0  0
   -3.5019    6.0648    0.0000 C   0  0  0  0  0  0  0  0  0  0  0  0
   -2.2277    6.8563    0.0000 C   0  0  0  0  0  0  0  0  0  0  0  0
   -2.7934    8.2455    0.0000 N   0  0  0  0  0  0  0  0  0  0  0  0
   -1.6469    9.2128    0.0000 C   0  0  0  0  0  0  0  0  0  0  0  0
   -0.3727    8.4213    0.0000 P   0  0  0  0  0  0  0  0  0  0  0  0
   -0.7317    6.9649    0.0000 C   0  0  0  0  0  0  0  0  0  0  0  0
    0.6435    6.3659    0.0000 N   0  0  0  0  0  0  0  0  0  0  0  0
    1.5543    7.5577    0.0000 C   0  0  0  0  0  0  0  0  0  0  0  0
    2.4650    8.7496    0.0000 C   0  0  0  0  0  0  0  0  0  0  0  0
    3.7455    7.9684    0.0000 N   0  0  0  0  0  2  0  0  0  0  0  0
    4.8842    8.9449    0.0000 C   0  0  0  0  0  0  0  0  0  0  0  0
    5.9743    7.9146    0.0000 N   0  0  0  0  0  2  0  0  0  0  0  0
    4.3074   10.3295    0.0000 C   0  0  0  0  0  0  0  0  0  0  0  0
    2.8122   10.2088    0.0000 C   0  0  0  0  0  0  0  0  0  0  0  0
    1.3749    9.7799    0.0000 C   0  0  0  0  0  0  0  0  0  0  0  0
    0.7029   11.1210    0.0000 N   0  0  0  0  0  0  0  0  0  0  0  0
    5.7949   10.1368    0.0000 C   0  0  0  0  0  0  0  0  0  0  0  0
    7.2825    9.9440    0.0000 C   0  0  0  0  0  0  0  0  0  0  0  0
    6.7057   11.3286    0.0000 N   0  0  0  0  0  0  0  0  0  0  0  0
    6.8985   12.8162    0.0000 F   0  0  0  0  0  0  0  0  0  0  0  0
    1.5828    5.1963    0.0000 C   0  0  0  0  0  0  0  0  0  0  0  0
    3.0100    5.6579    0.0000 O   0  0  0  0  0  0  0  0  0  0  0  0
    1.8710    3.7243    0.0000 C   0  0  0  0  0  0  0  0  0  0  0  0
    1.4421    2.2869    0.0000 C   0  0  0  0  0  0  0  0  0  0  0  0
    2.9381    2.3956    0.0000 C   0  0  0  0  0  0  0  0  0  0  0  0
    6.3785    0.7789    0.0000 H   0  0  0  0  0  0  0  0  0  0  0  0
    4.7738   -0.6085    0.0000 H   0  0  0  0  0  0  0  0  0  0  0  0
    5.1727    2.3592    0.0000 H   0  0  0  0  0  0  0  0  0  0  0  0
    4.0241    2.3539    0.0000 H   0  0  0  0  0  0  0  0  0  0  0  0
    3.2778   -0.4998    0.0000 H   0  0  0  0  0  0  0  0  0  0  0  0
    2.1664    1.9465    0.0000 H   0  0  0  0  0  0  0  0  0  0  0  0
    2.1214    0.3419    0.0000 H   0  0  0  0  0  0  0  0  0  0  0  0
    2.1029    0.3174    0.0000 H   0  0  0  0  0  0  0  0  0  0  0  0
    2.1616   -1.0189    0.0000 H   0  0  0  0  0  0  0  0  0  0  0  0
    1.6933   -1.9635    0.0000 H   0  0  0  0  0  0  0  0  0  0  0  0
   -0.0442   -2.6480    0.0000 H   0  0  0  0  0  0  0  0  0  0  0  0
   -2.5177   -0.9588    0.0000 H   0  0  0  0  0  0  0  0  0  0  0  0
   -2.7624   -1.7288    0.0000 H   0  0  0  0  0  0  0  0  0  0  0  0
    0.0741   -2.7056    0.0000 H   0  0  0  0  0  0  0  0  0  0  0  0
   -0.1888   -3.9963    0.0000 H   0  0  0  0  0  0  0  0  0  0  0  0
   -0.5007   -5.4635    0.0000 H   0  0  0  0  0  0  0  0  0  0  0  0
   -3.4622   -5.0210    0.0000 H   0  0  0  0  0  0  0  0  0  0  0  0
   -2.5916   -8.0861    0.0000 H   0  0  0  0  0  0  0  0  0  0  0  0
   -3.7470   -6.3070    0.0000 H   0  0  0  0  0  0  0  0  0  0  0  0
   -0.8125   -6.9308    0.0000 H   0  0  0  0  0  0  0  0  0  0  0  0
   -2.9925   -1.8783    0.0000 H   0  0  0  0  0  0  0  0  0  0  0  0
   -3.6116   -4.7908    0.0000 H   0  0  0  0  0  0  0  0  0  0  0  0
   -5.0540   -1.6341    0.0000 H   0  0  0  0  0  0  0  0  0  0  0  0
   -7.0614   -3.8636    0.0000 H   0  0  0  0  0  0  0  0  0  0  0  0
   -2.1788   -0.2173    0.0000 H   0  0  0  0  0  0  0  0  0  0  0  0
   -2.5874   -0.4955    0.0000 H   0  0  0  0  0  0  0  0  0  0  0  0
   -3.6791    0.0617    0.0000 H   0  0  0  0  0  0  0  0  0  0  0  0
   -4.3037    0.5389    0.0000 H   0  0  0  0  0  0  0  0  0  0  0  0
   -5.1744    1.6231    0.0000 H   0  0  0  0  0  0  0  0  0  0  0  0
   -5.3826    2.2002    0.0000 H   0  0  0  0  0  0  0  0  0  0  0  0
   -5.8141    3.5221    0.0000 H   0  0  0  0  0  0  0  0  0  0  0  0
   -5.3372    5.8181    0.0000 H   0  0  0  0  0  0  0  0  0  0  0  0
   -7.1155    3.8448    0.0000 H   0  0  0  0  0  0  0  0  0  0  0  0
   -6.1525    5.7349    0.0000 H   0  0  0  0  0  0  0  0  0  0  0  0
   -5.4028    2.8359    0.0000 H   0  0  0  0  0  0  0  0  0  0  0  0
   -4.9387    6.4957    0.0000 H   0  0  0  0  0  0  0  0  0  0  0  0
   -3.7901    7.5368    0.0000 H   0  0  0  0  0  0  0  0  0  0  0  0
   -2.4445    5.3720    0.0000 H   0  0  0  0  0  0  0  0  0  0  0  0
   -4.2498    8.6045    0.0000 H   0  0  0  0  0  0  0  0  0  0  0  0
   -2.7287   10.2519    0.0000 H   0  0  0  0  0  0  0  0  0  0  0  0
   -0.8778   10.5006    0.0000 H   0  0  0  0  0  0  0  0  0  0  0  0
    0.8384    9.3063    0.0000 H   0  0  0  0  0  0  0  0  0  0  0  0
    0.5219    7.7886    0.0000 H   0  0  0  0  0  0  0  0  0  0  0  0
    0.7680    8.8352    0.0000 H   0  0  0  0  0  0  0  0  0  0  0  0
    2.8483    6.7991    0.0000 H   0  0  0  0  0  0  0  0  0  0  0  0
    5.6271    6.4553    0.0000 H   0  0  0  0  0  0  0  0  0  0  0  0
    4.3436   11.8291    0.0000 H   0  0  0  0  0  0  0  0  0  0  0  0
    2.5359   11.6832    0.0000 H   0  0  0  0  0  0  0  0  0  0  0  0
   -0.1082    9.5554    0.0000 H   0  0  0  0  0  0  0  0  0  0  0  0
    1.5283   12.3735    0.0000 H   0  0  0  0  0  0  0  0  0  0  0  0
   -0.7726   11.3914    0.0000 H   0  0  0  0  0  0  0  0  0  0  0  0
    7.3509    8.4455    0.0000 H   0  0  0  0  0  0  0  0  0  0  0  0
    8.7463   10.2716    0.0000 H   0  0  0  0  0  0  0  0  0  0  0  0
    3.0392    4.6652    0.0000 H   0  0  0  0  0  0  0  0  0  0  0  0
    3.3101    3.3013    0.0000 H   0  0  0  0  0  0  0  0  0  0  0  0
    1.5104    3.7854    0.0000 H   0  0  0  0  0  0  0  0  0  0  0  0
    4.4098    2.6858    0.0000 H   0  0  0  0  0  0  0  0  0  0  0  0
    3.5758    1.0379    0.0000 H   0  0  0  0  0  0  0  0  0  0  0  0
    3.0126    3.8937    0.0000 H   0  0  0  0  0  0  0  0  0  0  0  0
  1  2  1  0
  2  3  1  0
  4  3  1  1
  4  5  1  0
  5  6  1  0
  6  7  1  0
  7  8  1  0
  8  9  1  0
  9 10  1  0
 10 11  1  0
  9 12  1  0
 12 13  1  0
 13 14  2  3
  7 15  1  0
 15 16  1  0
 16 17  1  0
 17 18  1  0
 18 19  1  0
 19 20  1  0
 19 21  1  0
 21 22  1  0
 22 23  1  0
 23 24  1  0
 24 25  1  0
 25 26  1  0
 26 27  1  0
 27 28  1  0
 29 28  1  6
 29 30  1  0
 30 31  1  0
 31 32  1  6
 31 33  1  0
 33 34  1  0
 34 35  1  0
 35 36  1  0
 33 37  1  0
 37 38  1  0
 38 39  1  0
 39 40  1  0
 27 41  1  0
 41 42  2  0
 41 43  1  0
 43 44  1  0
 44 45  1  0
 15  4  1  0
 26 22  1  0
 34 29  1  0
 37 39  1  6
 44  4  1  0
 35 29  1  0
 37 31  1  0
  1 46  1  0
  1 47  1  0
  1 48  1  0
  2 49  1  0
  2 50  1  0
  3 51  1  0
  3 52  1  0
  5 53  1  0
  5 54  1  0
  6 55  1  0
  6 56  1  0
  7 57  1  6
  8 58  1  0
  8 59  1  0
  9 60  1  1
 10 61  1  0
 10 62  1  0
 11 63  1  0
 11 64  1  0
 11 65  1  0
 12 66  1  0
 12 67  1  0
 13 68  1  0
 14 69  1  0
 15 70  1  1
 16 71  1  0
 16 72  1  0
 17 73  1  0
 17 74  1  0
 18 75  1  0
 18 76  1  0
 19 77  1  1
 20 78  1  0
 20 79  1  0
 20 80  1  0
 21 81  1  0
 21 82  1  0
 22 83  1  6
 23 84  1  0
 24 85  1  0
 24 86  1  0
 25 87  1  0
 26 88  1  6
 28 89  1  0
 28 90  1  0
 32 91  1  0
 33 92  1  6
 34 93  1  1
 35 94  1  6
 36 95  1  0
 36 96  1  0
 38 97  1  0
 38 98  1  0
 43 99  1  0
 43100  1  0
 44101  1  6
 45102  1  0
 45103  1  0
 45104  1  0
M  RAD  2  30   2  32   2
M  END
$$$$
