
     RDKit          2D

100105  0  0  0  0  0  0  0  0999 V2000
   -1.3710   10.0495    0.0000 C   0  0  0  0  0  0  0  0  0  0  0  0
   -0.8580    8.6400    0.0000 C   0  0  0  0  0  0  0  0  0  0  0  0
   -0.3449    7.2305    0.0000 C   0  0  0  0  0  0  0  0  0  0  0  0
    0.1681    5.8209    0.0000 C   0  0  0  0  0  0  0  0  0  0  0  0
    0.6811    4.4114    0.0000 C   0  0  0  0  0  0  0  0  0  0  0  0
   -0.6179    3.6614    0.0000 C   0  0  0  0  0  0  0  0  0  0  0  0
   -1.9169    2.9114    0.0000 C   0  0  0  0  0  0  0  0  0  0  0  0
    2.1584    4.6719    0.0000 Mg  0  0  0  0  0  2  0  0  0  0  0  0
    1.6453    3.2623    0.0000 C   0  0  0  0  0  0  0  0  0  0  0  0
    0.6811    2.1132    0.0000 C   0  0  0  0  0  0  0  0  0  0  0  0
   -0.2830    0.9642    0.0000 C   0  0  0  0  0  0  0  0  0  0  0  0
    1.8302    1.1491    0.0000 C   0  0  0  0  0  0  0  0  0  0  0  0
    2.9793    0.1849    0.0000 C   0  0  0  0  0  0  0  0  0  0  0  0
    4.1283   -0.7793    0.0000 C   0  0  0  0  0  0  0  0  0  0  0  0
    0.8660    0.0000    0.0000 C   0  0  0  0  0  0  0  0  0  0  0  0
    1.8302   -1.1491    0.0000 C   0  0  0  0  0  0  0  0  0  0  0  0
    2.7944   -2.2981    0.0000 C   0  0  0  0  0  0  0  0  0  0  0  0
    3.7586   -3.4472    0.0000 C   0  0  0  0  0  0  0  0  0  0  0  0
    4.7228   -4.5963    0.0000 C   0  0  0  0  0  0  0  0  0  0  0  0
    2.6095   -4.4114    0.0000 C   0  0  0  0  0  0  0  0  0  0  0  0
   -0.4330    0.7500    0.0000 C   0  0  0  0  0  0  0  0  0  0  0  0
   -1.9330    0.7500    0.0000 C   0  0  0  0  0  0  0  0  0  0  0  0
   -1.9330   -0.7500    0.0000 C   0  0  0  0  0  0  0  0  0  0  0  0
   -1.9330   -2.2500    0.0000 O   0  0  0  0  0  0  0  0  0  0  0  0
   -3.2321   -3.0000    0.0000 C   0  0  0  0  0  0  0  0  0  0  0  0
   -4.5311   -3.7500    0.0000 As  0  0  0  0  0  3  0  0  0  0  0  0
   -5.8301   -3.0000    0.0000 N   0  0  0  0  0  2  0  0  0  0  0  0
   -7.1292   -3.7500    0.0000 C   0  0  0  0  0  0  0  0  0  0  0  0
   -7.8792   -2.4510    0.0000 C   0  0  0  0  0  0  0  0  0  0  0  0
   -9.1782   -3.2010    0.0000 N   0  0  0  0  0  0  0  0  0  0  0  0
  -10.6271   -2.8127    0.0000 C   0  0  0  0  0  0  0  0  0  0  0  0
  -10.4964   -1.3184    0.0000 C   0  0  0  0  0  0  0  0  0  0  0  0
  -12.1214   -2.9435    0.0000 C   0  0  0  0  0  0  0  0  0  0  0  0
  -11.2610   -4.1722    0.0000 C   0  0  0  0  0  0  0  0  0  0  0  0
  -11.8949   -5.5317    0.0000 C   0  0  0  0  0  0  0  0  0  0  0  0
  -10.4007   -5.4009    0.0000 C   0  0  0  0  0  0  0  0  0  0  0  0
  -10.0124   -6.8498    0.0000 C   0  0  0  0  0  0  0  0  0  0  0  0
   -9.6242   -8.2987    0.0000 C   0  0  0  0  0  0  0  0  0  0  0  0
   -8.4282   -4.5000    0.0000 N   0  0  0  0  0  2  0  0  0  0  0  0
   -0.4330   -0.7500    0.0000 C   0  0  0  0  0  0  0  0  0  0  0  0
   -1.8840   11.4591    0.0000 H   0  0  0  0  0  0  0  0  0  0  0  0
   -2.7805    9.5365    0.0000 H   0  0  0  0  0  0  0  0  0  0  0  0
    0.0386   10.5626    0.0000 H   0  0  0  0  0  0  0  0  0  0  0  0
   -2.2675    8.1270    0.0000 H   0  0  0  0  0  0  0  0  0  0  0  0
    0.5516    9.1530    0.0000 H   0  0  0  0  0  0  0  0  0  0  0  0
    1.0646    7.7435    0.0000 H   0  0  0  0  0  0  0  0  0  0  0  0
   -1.7545    6.7174    0.0000 H   0  0  0  0  0  0  0  0  0  0  0  0
    1.5776    6.3340    0.0000 H   0  0  0  0  0  0  0  0  0  0  0  0
   -1.2935    5.4835    0.0000 H   0  0  0  0  0  0  0  0  0  0  0  0
   -1.5207    4.8593    0.0000 H   0  0  0  0  0  0  0  0  0  0  0  0
   -0.0318    2.2806    0.0000 H   0  0  0  0  0  0  0  0  0  0  0  0
   -3.2160    2.1614    0.0000 H   0  0  0  0  0  0  0  0  0  0  0  0
   -2.6669    4.2104    0.0000 H   0  0  0  0  0  0  0  0  0  0  0  0
   -1.3309    1.5306    0.0000 H   0  0  0  0  0  0  0  0  0  0  0  0
    3.0261    2.6763    0.0000 H   0  0  0  0  0  0  0  0  0  0  0  0
   -0.6671    2.7707    0.0000 H   0  0  0  0  0  0  0  0  0  0  0  0
   -1.2472   -0.1849    0.0000 H   0  0  0  0  0  0  0  0  0  0  0  0
   -1.4321    1.9284    0.0000 H   0  0  0  0  0  0  0  0  0  0  0  0
    0.5986   -0.2494    0.0000 H   0  0  0  0  0  0  0  0  0  0  0  0
    2.9273    2.1720    0.0000 H   0  0  0  0  0  0  0  0  0  0  0  0
    3.9435    1.3340    0.0000 H   0  0  0  0  0  0  0  0  0  0  0  0
    2.3218   -1.1633    0.0000 H   0  0  0  0  0  0  0  0  0  0  0  0
    5.3864   -1.5962    0.0000 H   0  0  0  0  0  0  0  0  0  0  0  0
    5.0925    0.3698    0.0000 H   0  0  0  0  0  0  0  0  0  0  0  0
    3.4709   -2.1275    0.0000 H   0  0  0  0  0  0  0  0  0  0  0  0
    0.8072   -2.2461    0.0000 H   0  0  0  0  0  0  0  0  0  0  0  0
    3.1784   -0.4916    0.0000 H   0  0  0  0  0  0  0  0  0  0  0  0
    4.1426   -1.6406    0.0000 H   0  0  0  0  0  0  0  0  0  0  0  0
    1.5364   -3.1151    0.0000 H   0  0  0  0  0  0  0  0  0  0  0  0
    5.0166   -2.6303    0.0000 H   0  0  0  0  0  0  0  0  0  0  0  0
    5.6869   -5.7453    0.0000 H   0  0  0  0  0  0  0  0  0  0  0  0
    3.6998   -5.6933    0.0000 H   0  0  0  0  0  0  0  0  0  0  0  0
    5.8718   -3.6321    0.0000 H   0  0  0  0  0  0  0  0  0  0  0  0
    1.4604   -5.3756    0.0000 H   0  0  0  0  0  0  0  0  0  0  0  0
    3.4264   -5.6694    0.0000 H   0  0  0  0  0  0  0  0  0  0  0  0
    1.5124   -3.3884    0.0000 H   0  0  0  0  0  0  0  0  0  0  0  0
   -0.2243    2.2354    0.0000 H   0  0  0  0  0  0  0  0  0  0  0  0
   -3.4330    0.7500    0.0000 H   0  0  0  0  0  0  0  0  0  0  0  0
   -2.4707    2.1503    0.0000 H   0  0  0  0  0  0  0  0  0  0  0  0
   -3.4330   -0.7500    0.0000 H   0  0  0  0  0  0  0  0  0  0  0  0
   -2.4821   -4.2990    0.0000 H   0  0  0  0  0  0  0  0  0  0  0  0
   -3.9821   -1.7010    0.0000 H   0  0  0  0  0  0  0  0  0  0  0  0
   -4.5311   -5.2500    0.0000 H   0  0  0  0  0  0  0  0  0  0  0  0
   -6.3792   -5.0490    0.0000 H   0  0  0  0  0  0  0  0  0  0  0  0
   -8.4652   -1.0702    0.0000 H   0  0  0  0  0  0  0  0  0  0  0  0
   -6.5801   -1.7010    0.0000 H   0  0  0  0  0  0  0  0  0  0  0  0
  -10.3656    0.1759    0.0000 H   0  0  0  0  0  0  0  0  0  0  0  0
  -11.9636   -1.0065    0.0000 H   0  0  0  0  0  0  0  0  0  0  0  0
   -8.9973   -1.2661    0.0000 H   0  0  0  0  0  0  0  0  0  0  0  0
  -12.6833   -1.5527    0.0000 H   0  0  0  0  0  0  0  0  0  0  0  0
  -13.4808   -3.5774    0.0000 H   0  0  0  0  0  0  0  0  0  0  0  0
  -13.3438   -5.1434    0.0000 H   0  0  0  0  0  0  0  0  0  0  0  0
  -12.2069   -6.9989    0.0000 H   0  0  0  0  0  0  0  0  0  0  0  0
   -8.9282   -5.1148    0.0000 H   0  0  0  0  0  0  0  0  0  0  0  0
   -8.5635   -6.4616    0.0000 H   0  0  0  0  0  0  0  0  0  0  0  0
  -11.4032   -7.4118    0.0000 H   0  0  0  0  0  0  0  0  0  0  0  0
   -9.2360   -9.7476    0.0000 H   0  0  0  0  0  0  0  0  0  0  0  0
  -11.0731   -8.6869    0.0000 H   0  0  0  0  0  0  0  0  0  0  0  0
   -8.1753   -7.9105    0.0000 H   0  0  0  0  0  0  0  0  0  0  0  0
   -0.2243   -2.2354    0.0000 H   0  0  0  0  0  0  0  0  0  0  0  0
  1  2  1  0
  2  3  1  0
  3  4  1  0
  4  5  1  0
  5  6  1  0
  6  7  1  0
  5  8  1  0
  8  9  1  0
  9 10  1  0
 10 11  1  0
 10 12  1  0
 12 13  1  0
 13 14  1  0
 12 15  1  0
 15 16  1  0
 16 17  1  0
 17 18  1  0
 18 19  1  0
 18 20  1  0
 15 21  1  0
 21 22  1  0
 22 23  1  0
 23 24  1  0
 24 25  1  0
 25 26  1  0
 26 27  1  0
 27 28  1  0
 28 29  1  0
 29 30  1  0
 30 31  1  0
 31 32  1  0
 31 33  1  0
 33 34  1  0
 34 35  1  0
 35 36  1  0
 36 37  1  0
 37 38  1  0
 30 39  1  0
 23 40  1  0
  9  5  1  0
 40 15  1  0
 40 21  1  0
 39 28  1  0
 34 31  1  0
 36 34  1  0
  1 41  1  0
  1 42  1  0
  1 43  1  0
  2 44  1  0
  2 45  1  0
  3 46  1  0
  3 47  1  0
  4 48  1  0
  4 49  1  0
  6 50  1  0
  6 51  1  0
  7 52  1  0
  7 53  1  0
  7 54  1  0
  9 55  1  0
 10 56  1  0
 11 57  1  0
 11 58  1  0
 11 59  1  0
 12 60  1  0
 13 61  1  0
 13 62  1  0
 14 63  1  0
 14 64  1  0
 14 65  1  0
 16 66  1  0
 16 67  1  0
 17 68  1  0
 17 69  1  0
 18 70  1  0
 19 71  1  0
 19 72  1  0
 19 73  1  0
 20 74  1  0
 20 75  1  0
 20 76  1  0
 21 77  1  0
 22 78  1  0
 22 79  1  0
 23 80  1  0
 25 81  1  0
 25 82  1  0
 26 83  1  0
 28 84  1  0
 29 85  1  0
 29 86  1  0
 32 87  1  0
 32 88  1  0
 32 89  1  0
 33 90  1  0
 33 91  1  0
 35 92  1  0
 35 93  1  0
 36 94  1  0
 37 95  1  0
 37 96  1  0
 38 97  1  0
 38 98  1  0
 38 99  1  0
 40100  1  0
M  RAD  2  27   2  39   2
M  END
$$$$
