
     RDKit          2D

 34 38  0  0  0  0  0  0  0  0999 V2000
    1.8302    1.1491    0.0000 O   0  0  0  0  0  0  0  0  0  0  0  0
    0.8660    0.0000    0.0000 C   0  0  0  0  0  0  0  0  0  0  0  0
   -0.4330    0.7500    0.0000 N   0  0  0  0  0  0  0  0  0  0  0  0
   -1.1830    2.0490    0.0000 C   0  0  0  0  0  0  0  0  0  0  0  0
   -2.4821    1.2990    0.0000 Si  0  0  0  0  0  4  0  0  0  0  0  0
   -1.9330    3.3481    0.0000 C   0  0  0  0  0  0  0  0  0  0  0  0
   -2.1935    4.8253    0.0000 C   0  0  0  0  0  0  0  0  0  0  0  0
   -0.7839    4.3123    0.0000 C   0  0  0  0  0  0  0  0  0  0  0  0
   -0.0339    5.6113    0.0000 C   0  0  0  0  0  0  0  0  0  0  0  0
    1.1151    6.5755    0.0000 C   0  0  0  0  0  0  0  0  0  0  0  0
    1.3756    5.0983    0.0000 C   0  0  0  0  0  0  0  0  0  0  0  0
   -0.4330   -0.7500    0.0000 C   0  0  0  0  0  0  0  0  0  0  0  0
   -1.7321   -1.5000    0.0000 C   0  0  0  0  0  0  0  0  0  0  0  0
   -1.7321   -3.0000    0.0000 N   0  0  0  0  0  0  0  0  0  0  0  0
   -0.4330   -2.2500    0.0000 C   0  0  0  0  0  0  0  0  0  0  0  0
    0.8660   -3.0000    0.0000 O   0  0  0  0  0  0  0  0  0  0  0  0
    3.3074    0.8886    0.0000 H   0  0  0  0  0  0  0  0  0  0  0  0
    1.8302   -1.1491    0.0000 H   0  0  0  0  0  0  0  0  0  0  0  0
   -0.0646    2.5237    0.0000 H   0  0  0  0  0  0  0  0  0  0  0  0
   -3.7811    0.5490    0.0000 H   0  0  0  0  0  0  0  0  0  0  0  0
   -1.7321   -0.0000    0.0000 H   0  0  0  0  0  0  0  0  0  0  0  0
   -3.1402    2.1723    0.0000 H   0  0  0  0  0  0  0  0  0  0  0  0
   -2.9985    3.1021    0.0000 H   0  0  0  0  0  0  0  0  0  0  0  0
   -3.6935    4.8253    0.0000 H   0  0  0  0  0  0  0  0  0  0  0  0
   -2.1150    6.3232    0.0000 H   0  0  0  0  0  0  0  0  0  0  0  0
    0.1468    3.5313    0.0000 H   0  0  0  0  0  0  0  0  0  0  0  0
   -1.0569    6.7084    0.0000 H   0  0  0  0  0  0  0  0  0  0  0  0
    0.3651    7.8745    0.0000 H   0  0  0  0  0  0  0  0  0  0  0  0
    2.5247    7.0885    0.0000 H   0  0  0  0  0  0  0  0  0  0  0  0
    2.8756    5.0983    0.0000 H   0  0  0  0  0  0  0  0  0  0  0  0
    1.2971    3.6003    0.0000 H   0  0  0  0  0  0  0  0  0  0  0  0
   -3.0311   -0.7500    0.0000 H   0  0  0  0  0  0  0  0  0  0  0  0
   -2.4821   -4.2990    0.0000 H   0  0  0  0  0  0  0  0  0  0  0  0
    0.8660   -4.5000    0.0000 H   0  0  0  0  0  0  0  0  0  0  0  0
  1  2  1  0
  2  3  1  0
  3  4  1  0
  4  5  1  0
  4  6  1  0
  6  7  1  0
  7  8  1  0
  8  9  1  0
  9 10  1  0
 10 11  1  0
  3 12  1  0
 12 13  1  0
 13 14  1  0
 14 15  1  0
 15 16  1  0
 12  2  1  0
 15 13  1  0
  8  6  1  0
 11  9  1  0
 15 12  1  0
  1 17  1  0
  2 18  1  0
  4 19  1  0
  5 20  1  0
  5 21  1  0
  5 22  1  0
  6 23  1  0
  7 24  1  0
  7 25  1  0
  8 26  1  0
  9 27  1  0
 10 28  1  0
 10 29  1  0
 11 30  1  0
 11 31  1  0
 13 32  1  0
 14 33  1  0
 16 34  1  0
M  END
$$$$
