
     RDKit          2D

 55 61  0  0  0  0  0  0  0  0999 V2000
    2.2396    4.4455    0.0000 C   0  0  0  0  0  0  0  0  0  0  0  0
    1.7265    3.0360    0.0000 C   0  0  0  0  0  0  0  0  0  0  0  0
    3.1361    2.5230    0.0000 C   0  0  0  0  0  0  0  0  0  0  0  0
    4.5456    2.0099    0.0000 O   0  0  0  0  0  0  0  0  0  0  0  0
    0.3170    3.5490    0.0000 C   0  0  0  0  0  0  0  0  0  0  0  0
    0.3170    2.0490    0.0000 C   0  0  0  0  0  0  0  0  0  0  0  0
   -0.4330    0.7500    0.0000 C   0  0  0  0  0  0  0  0  0  0  0  0
    0.8660    0.0000    0.0000 C   0  0  0  0  0  0  0  0  0  0  0  0
   -0.4330   -0.7500    0.0000 C   0  0  0  0  0  0  0  0  0  0  0  0
   -1.7321    0.0000    0.0000 C   0  0  0  0  0  0  0  0  0  0  0  0
   -3.2321    0.0000    0.0000 C   0  0  0  0  0  0  0  0  0  0  0  0
   -2.4821   -1.2990    0.0000 C   0  0  0  0  0  0  0  0  0  0  0  0
   -2.4821   -2.7990    0.0000 C   0  0  0  0  0  0  0  0  0  0  0  0
   -4.5311    0.7500    0.0000 C   0  0  0  0  0  0  0  0  0  0  0  0
   -6.0311    0.7500    0.0000 C   0  0  0  0  0  0  0  0  0  0  0  0
   -5.2811    2.0490    0.0000 C   0  0  0  0  0  0  0  0  0  0  0  0
   -5.2811    3.5490    0.0000 C   0  0  0  0  0  0  0  0  0  0  0  0
   -6.2453    4.6981    0.0000 C   0  0  0  0  0  0  0  0  0  0  0  0
   -4.5311    4.8481    0.0000 C   0  0  0  0  0  0  0  0  0  0  0  0
   -3.2321    5.5981    0.0000 C   0  0  0  0  0  0  0  0  0  0  0  0
   -1.7321    5.5981    0.0000 C   0  0  0  0  0  0  0  0  0  0  0  0
   -0.4330    4.8481    0.0000 C   0  0  0  0  0  0  0  0  0  0  0  0
   -1.9330    4.8481    0.0000 C   0  0  0  0  0  0  0  0  0  0  0  0
    3.1026    4.2463    0.0000 H   0  0  0  0  0  0  0  0  0  0  0  0
    1.5293    4.8075    0.0000 H   0  0  0  0  0  0  0  0  0  0  0  0
    2.7526    5.8551    0.0000 H   0  0  0  0  0  0  0  0  0  0  0  0
    1.5698    1.5442    0.0000 H   0  0  0  0  0  0  0  0  0  0  0  0
    3.5382    3.3122    0.0000 H   0  0  0  0  0  0  0  0  0  0  0  0
    2.7987    1.0614    0.0000 H   0  0  0  0  0  0  0  0  0  0  0  0
    5.6947    2.9741    0.0000 H   0  0  0  0  0  0  0  0  0  0  0  0
    0.7511    4.2176    0.0000 H   0  0  0  0  0  0  0  0  0  0  0  0
    1.8088    2.2058    0.0000 H   0  0  0  0  0  0  0  0  0  0  0  0
    1.2812    0.9000    0.0000 H   0  0  0  0  0  0  0  0  0  0  0  0
    2.1780    0.7271    0.0000 H   0  0  0  0  0  0  0  0  0  0  0  0
    1.8302   -1.1491    0.0000 H   0  0  0  0  0  0  0  0  0  0  0  0
   -0.2502   -2.2388    0.0000 H   0  0  0  0  0  0  0  0  0  0  0  0
   -4.2927   -1.0607    0.0000 H   0  0  0  0  0  0  0  0  0  0  0  0
   -3.9821   -2.7990    0.0000 H   0  0  0  0  0  0  0  0  0  0  0  0
   -0.9932   -2.9819    0.0000 H   0  0  0  0  0  0  0  0  0  0  0  0
   -2.4821   -4.2990    0.0000 H   0  0  0  0  0  0  0  0  0  0  0  0
   -6.2916   -0.7272    0.0000 H   0  0  0  0  0  0  0  0  0  0  0  0
   -7.4406    1.2630    0.0000 H   0  0  0  0  0  0  0  0  0  0  0  0
   -6.7665    2.2578    0.0000 H   0  0  0  0  0  0  0  0  0  0  0  0
   -6.7427    3.2117    0.0000 H   0  0  0  0  0  0  0  0  0  0  0  0
   -7.3943    3.7339    0.0000 H   0  0  0  0  0  0  0  0  0  0  0  0
   -5.2223    5.7952    0.0000 H   0  0  0  0  0  0  0  0  0  0  0  0
   -7.2095    5.8472    0.0000 H   0  0  0  0  0  0  0  0  0  0  0  0
   -5.9014    5.4583    0.0000 H   0  0  0  0  0  0  0  0  0  0  0  0
   -4.6096    6.3460    0.0000 H   0  0  0  0  0  0  0  0  0  0  0  0
   -3.6203    7.0470    0.0000 H   0  0  0  0  0  0  0  0  0  0  0  0
   -2.2451    7.0076    0.0000 H   0  0  0  0  0  0  0  0  0  0  0  0
   -0.5830    6.5623    0.0000 H   0  0  0  0  0  0  0  0  0  0  0  0
    0.6276    5.9087    0.0000 H   0  0  0  0  0  0  0  0  0  0  0  0
   -3.0821    3.8839    0.0000 H   0  0  0  0  0  0  0  0  0  0  0  0
   -1.4200    3.4385    0.0000 H   0  0  0  0  0  0  0  0  0  0  0  0
  1  2  1  0
  2  3  1  0
  3  4  1  0
  2  5  1  0
  5  6  1  0
  6  7  1  0
  7  8  1  1
  8  9  1  0
  9 10  1  0
 10 11  1  0
 11 12  1  0
 12 13  1  1
 12 14  1  0
 14 15  1  1
 15 16  1  0
 16 17  1  0
 17 18  1  0
 17 19  1  0
 19 20  1  0
 20 21  1  0
 21 22  1  0
 22 23  1  0
 22  5  1  0
  9  7  1  0
 12 10  1  0
 16 14  1  0
 23 20  1  0
 10  7  1  6
 14 11  1  0
  1 24  1  0
  1 25  1  0
  1 26  1  0
  2 27  1  1
  3 28  1  0
  3 29  1  0
  4 30  1  0
  5 31  1  1
  6 32  1  0
  6 33  1  0
  8 34  1  0
  8 35  1  0
  9 36  1  6
 11 37  1  1
 13 38  1  0
 13 39  1  0
 13 40  1  0
 15 41  1  0
 15 42  1  0
 16 43  1  1
 17 44  1  1
 18 45  1  0
 18 46  1  0
 18 47  1  0
 19 48  1  0
 19 49  1  0
 20 50  1  6
 21 51  1  0
 21 52  1  0
 22 53  1  6
 23 54  1  0
 23 55  1  0
M  END
$$$$
