
     RDKit          2D

 20 23  0  0  0  0  0  0  0  0999 V2000
   -3.2321    2.5981    0.0000 C   0  0  0  0  0  0  0  0  0  0  0  0
   -2.4821    1.2990    0.0000 C   0  0  0  0  0  0  0  0  0  0  0  0
   -3.7811    0.5490    0.0000 C   0  0  0  0  0  0  0  0  0  0  0  0
   -4.5311    1.8481    0.0000 O   0  0  0  0  0  0  0  0  0  0  0  0
   -5.8301    1.0981    0.0000 Mg  0  0  0  0  0  2  0  0  0  0  0  0
   -5.0801   -0.2010    0.0000 O   0  0  0  0  0  0  0  0  0  0  0  0
   -1.1830    2.0490    0.0000 C   0  0  0  0  0  0  0  0  0  0  0  0
   -0.4330    0.7500    0.0000 C   0  0  0  0  0  0  0  0  0  0  0  0
    0.8660    0.0000    0.0000 O   0  0  0  0  0  0  0  0  0  0  0  0
   -0.4330   -0.7500    0.0000 C   0  0  0  0  0  0  0  0  0  0  0  0
   -0.4330   -2.2500    0.0000 O   0  0  0  0  0  0  0  0  0  0  0  0
   -1.7321    0.0000    0.0000 C   0  0  0  0  0  0  0  0  0  0  0  0
   -3.9821    3.8971    0.0000 H   0  0  0  0  0  0  0  0  0  0  0  0
   -3.9983    2.3784    0.0000 H   0  0  0  0  0  0  0  0  0  0  0  0
   -2.0341    3.5008    0.0000 H   0  0  0  0  0  0  0  0  0  0  0  0
   -3.1950   -0.8317    0.0000 H   0  0  0  0  0  0  0  0  0  0  0  0
    0.1160    2.7990    0.0000 H   0  0  0  0  0  0  0  0  0  0  0  0
   -1.7691    3.4298    0.0000 H   0  0  0  0  0  0  0  0  0  0  0  0
   -1.7321   -3.0000    0.0000 H   0  0  0  0  0  0  0  0  0  0  0  0
   -2.6555   -1.1820    0.0000 H   0  0  0  0  0  0  0  0  0  0  0  0
  2  1  1  1
  2  3  1  0
  3  4  1  0
  4  5  1  0
  5  6  1  0
  2  7  1  0
  7  8  1  0
  8  9  1  6
  9 10  1  0
 10 11  1  1
 10 12  1  0
 12  2  1  0
  6  3  1  0
 10  8  1  0
 12  8  1  0
  1 13  1  0
  1 14  1  0
  1 15  1  0
  3 16  1  0
  7 17  1  0
  7 18  1  0
 11 19  1  0
 12 20  1  1
M  END
$$$$
