
     RDKit          2D

 29 30  0  0  0  0  0  0  0  0999 V2000
   -0.2075    4.5546    0.0000 C   0  0  0  0  0  0  0  0  0  0  0  0
   -0.4679    3.0774    0.0000 C   0  0  0  0  0  0  0  0  0  0  0  0
    0.6811    2.1132    0.0000 C   0  0  0  0  0  0  0  0  0  0  0  0
   -0.2830    0.9642    0.0000 N   0  0  0  0  0  0  0  0  0  0  0  0
   -1.7603    1.2247    0.0000 C   0  0  0  0  0  0  0  0  0  0  0  0
    1.8302    1.1491    0.0000 C   0  0  0  0  0  0  0  0  0  0  0  0
    2.9793    0.1849    0.0000 C   0  0  0  0  0  0  0  0  0  0  0  0
    0.8660    0.0000    0.0000 C   0  0  0  0  0  0  0  0  0  0  0  0
    1.8302   -1.1491    0.0000 C   0  0  0  0  0  0  0  0  0  0  0  0
    2.0907   -2.6263    0.0000 C   0  0  0  0  0  0  0  0  0  0  0  0
    0.6135   -2.8868    0.0000 C   0  0  0  0  0  0  0  0  0  0  0  0
    0.3530   -1.4095    0.0000 C   0  0  0  0  0  0  0  0  0  0  0  0
   -1.3565    5.5188    0.0000 H   0  0  0  0  0  0  0  0  0  0  0  0
    1.2021    5.0677    0.0000 H   0  0  0  0  0  0  0  0  0  0  0  0
   -1.5334    2.8315    0.0000 H   0  0  0  0  0  0  0  0  0  0  0  0
    1.6453    3.2623    0.0000 H   0  0  0  0  0  0  0  0  0  0  0  0
   -2.7244    0.0756    0.0000 H   0  0  0  0  0  0  0  0  0  0  0  0
   -2.2567    2.1990    0.0000 H   0  0  0  0  0  0  0  0  0  0  0  0
    2.7944    2.2981    0.0000 H   0  0  0  0  0  0  0  0  0  0  0  0
    4.1283   -0.7793    0.0000 H   0  0  0  0  0  0  0  0  0  0  0  0
    3.9435    1.3340    0.0000 H   0  0  0  0  0  0  0  0  0  0  0  0
    2.5479   -0.6997    0.0000 H   0  0  0  0  0  0  0  0  0  0  0  0
    0.0997    0.2197    0.0000 H   0  0  0  0  0  0  0  0  0  0  0  0
    3.3027   -0.8629    0.0000 H   0  0  0  0  0  0  0  0  0  0  0  0
    2.3512   -4.1035    0.0000 H   0  0  0  0  0  0  0  0  0  0  0  0
    3.5679   -2.3658    0.0000 H   0  0  0  0  0  0  0  0  0  0  0  0
   -0.8637   -3.1472    0.0000 H   0  0  0  0  0  0  0  0  0  0  0  0
    0.8739   -4.3640    0.0000 H   0  0  0  0  0  0  0  0  0  0  0  0
   -1.1413   -1.2788    0.0000 H   0  0  0  0  0  0  0  0  0  0  0  0
  1  2  2  3
  2  3  1  0
  3  4  1  0
  4  5  2  3
  3  6  1  0
  6  7  1  0
  6  8  1  0
  8  9  1  0
  9 10  1  0
 10 11  1  0
 11 12  1  0
 12  8  1  0
 12  9  1  0
  1 13  1  0
  1 14  1  0
  2 15  1  0
  3 16  1  0
  5 17  1  0
  5 18  1  0
  6 19  1  0
  7 20  1  0
  7 21  1  0
  7 22  1  0
  8 23  1  0
  9 24  1  0
 10 25  1  0
 10 26  1  0
 11 27  1  0
 11 28  1  0
 12 29  1  0
M  END
$$$$
