
     RDKit          2D

 24 23  0  0  0  0  0  0  0  0999 V2000
    0.0000    0.0000    0.0000 C   0  0  0  0  0  0  0  0  0  0  0  0
    1.5000    0.0000    0.0000 C   0  0  0  0  0  0  0  0  0  0  0  0
    3.0000    0.0000    0.0000 C   0  0  0  0  0  0  0  0  0  0  0  0
    4.5000    0.0000    0.0000 N   0  0  0  0  0  0  0  0  0  0  0  0
    1.5000   -1.5000    0.0000 C   0  0  0  0  0  0  0  0  0  0  0  0
    1.5000   -3.0000    0.0000 C   0  0  0  0  0  0  0  0  0  0  0  0
    1.5000   -4.5000    0.0000 O   0  0  0  0  0  1  0  0  0  0  0  0
    0.0000   -3.0000    0.0000 S   0  0  0  0  0  3  0  0  0  0  0  0
   -0.7500   -1.7010    0.0000 O   0  0  0  0  0  0  0  0  0  0  0  0
   -0.7500   -4.2990    0.0000 O   0  0  0  0  0  0  0  0  0  0  0  0
   -2.2500   -4.2990    0.0000 O   0  0  0  0  0  0  0  0  0  0  0  0
   -1.5000    0.0000    0.0000 H   0  0  0  0  0  0  0  0  0  0  0  0
   -0.0000    1.5000    0.0000 H   0  0  0  0  0  0  0  0  0  0  0  0
   -0.2857   -0.7442    0.0000 H   0  0  0  0  0  0  0  0  0  0  0  0
    1.5000    1.5000    0.0000 H   0  0  0  0  0  0  0  0  0  0  0  0
    3.0000    1.5000    0.0000 H   0  0  0  0  0  0  0  0  0  0  0  0
    3.1080   -0.8791    0.0000 H   0  0  0  0  0  0  0  0  0  0  0  0
    5.2500   -1.2990    0.0000 H   0  0  0  0  0  0  0  0  0  0  0  0
    5.2500    1.2990    0.0000 H   0  0  0  0  0  0  0  0  0  0  0  0
    2.3791   -1.6080    0.0000 H   0  0  0  0  0  0  0  0  0  0  0  0
    0.2941   -1.3519    0.0000 H   0  0  0  0  0  0  0  0  0  0  0  0
    3.0000   -3.0000    0.0000 H   0  0  0  0  0  0  0  0  0  0  0  0
   -2.2500   -1.7010    0.0000 H   0  0  0  0  0  0  0  0  0  0  0  0
   -3.0000   -5.5981    0.0000 H   0  0  0  0  0  0  0  0  0  0  0  0
  1  2  1  0
  2  3  1  0
  3  4  1  0
  2  5  1  0
  5  6  1  0
  6  7  1  0
  6  8  1  0
  8  9  1  0
  8 10  1  0
 10 11  1  0
  1 12  1  0
  1 13  1  0
  1 14  1  0
  2 15  1  0
  3 16  1  0
  3 17  1  0
  4 18  1  0
  4 19  1  0
  5 20  1  0
  5 21  1  0
  6 22  1  0
  9 23  1  0
 11 24  1  0
M  RAD  2   7   2   8   2
M  END
$$$$
