
     RDKit          2D

 63 64  0  0  0  0  0  0  0  0999 V2000
    0.0000    5.3033    0.0000 C   0  0  0  0  0  0  0  0  0  0  0  0
    1.0607    4.2426    0.0000 C   0  0  0  0  0  0  0  0  0  0  0  0
    2.1213    3.1820    0.0000 C   0  0  0  0  0  0  0  0  0  0  0  0
    3.1820    2.1213    0.0000 C   0  0  0  0  0  0  0  0  0  0  0  0
    4.2426    1.0607    0.0000 C   0  0  0  0  0  0  0  0  0  0  0  0
    5.3033   -0.0000    0.0000 C   0  0  0  0  0  0  0  0  0  0  0  0
    6.3640   -1.0607    0.0000 C   0  0  0  0  0  0  0  0  0  0  0  0
    4.2426   -1.0607    0.0000 C   0  0  0  0  0  0  0  0  0  0  0  0
    3.1820   -2.1213    0.0000 C   0  0  0  0  0  0  0  0  0  0  0  0
    2.1213   -3.1820    0.0000 C   0  0  0  0  0  0  0  0  0  0  0  0
    1.0607   -4.2426    0.0000 C   0  0  0  0  0  0  0  0  0  0  0  0
    1.0607   -2.1213    0.0000 C   0  0  0  0  0  0  0  0  0  0  0  0
   -0.0000   -1.0607    0.0000 C   0  0  0  0  0  0  0  0  0  0  0  0
    1.0607    0.0000    0.0000 C   0  0  0  0  0  0  0  0  0  0  0  0
    0.0000    1.0607    0.0000 N   0  0  0  0  0  0  0  0  0  0  0  0
   -1.0607    0.0000    0.0000 C   0  0  0  0  0  0  0  0  0  0  0  0
    4.2426    3.1820    0.0000 C   0  0  0  0  0  0  0  0  0  0  0  0
    3.3823    4.4107    0.0000 C   0  0  0  0  0  0  0  0  0  0  0  0
    5.6021    3.8159    0.0000 C   0  0  0  0  0  0  0  0  0  0  0  0
    5.4714    2.3216    0.0000 C   0  0  0  0  0  0  0  0  0  0  0  0
    6.9203    1.9334    0.0000 C   0  0  0  0  0  0  0  0  0  0  0  0
    4.8374    0.9622    0.0000 C   0  0  0  0  0  0  0  0  0  0  0  0
   -1.0607    6.3640    0.0000 H   0  0  0  0  0  0  0  0  0  0  0  0
   -1.0607    4.2426    0.0000 H   0  0  0  0  0  0  0  0  0  0  0  0
    1.0607    6.3640    0.0000 H   0  0  0  0  0  0  0  0  0  0  0  0
    1.9841    5.4247    0.0000 H   0  0  0  0  0  0  0  0  0  0  0  0
   -0.1214    3.3192    0.0000 H   0  0  0  0  0  0  0  0  0  0  0  0
    2.8938    4.4678    0.0000 H   0  0  0  0  0  0  0  0  0  0  0  0
    1.0607    2.1213    0.0000 H   0  0  0  0  0  0  0  0  0  0  0  0
    1.9999    1.1979    0.0000 H   0  0  0  0  0  0  0  0  0  0  0  0
    3.0606    0.1372    0.0000 H   0  0  0  0  0  0  0  0  0  0  0  0
    5.5284    1.8331    0.0000 H   0  0  0  0  0  0  0  0  0  0  0  0
    6.5891    0.7725    0.0000 H   0  0  0  0  0  0  0  0  0  0  0  0
    7.4246   -2.1213    0.0000 H   0  0  0  0  0  0  0  0  0  0  0  0
    7.4246   -0.0000    0.0000 H   0  0  0  0  0  0  0  0  0  0  0  0
    5.4405   -2.2427    0.0000 H   0  0  0  0  0  0  0  0  0  0  0  0
    3.0606   -0.1372    0.0000 H   0  0  0  0  0  0  0  0  0  0  0  0
    5.1661   -2.2427    0.0000 H   0  0  0  0  0  0  0  0  0  0  0  0
    4.1054   -3.3034    0.0000 H   0  0  0  0  0  0  0  0  0  0  0  0
    4.3640   -3.0448    0.0000 H   0  0  0  0  0  0  0  0  0  0  0  0
    3.1820   -4.2426    0.0000 H   0  0  0  0  0  0  0  0  0  0  0  0
   -0.0000   -5.3033    0.0000 H   0  0  0  0  0  0  0  0  0  0  0  0
    2.1213   -5.3033    0.0000 H   0  0  0  0  0  0  0  0  0  0  0  0
   -0.1214   -3.3192    0.0000 H   0  0  0  0  0  0  0  0  0  0  0  0
    2.2427   -1.1979    0.0000 H   0  0  0  0  0  0  0  0  0  0  0  0
   -0.1214   -3.0448    0.0000 H   0  0  0  0  0  0  0  0  0  0  0  0
   -1.0607   -2.1213    0.0000 H   0  0  0  0  0  0  0  0  0  0  0  0
    1.9841    1.1820    0.0000 H   0  0  0  0  0  0  0  0  0  0  0  0
    2.2427   -0.9235    0.0000 H   0  0  0  0  0  0  0  0  0  0  0  0
   -0.1828    2.5495    0.0000 H   0  0  0  0  0  0  0  0  0  0  0  0
   -2.1213   -1.0607    0.0000 H   0  0  0  0  0  0  0  0  0  0  0  0
   -2.1213    1.0607    0.0000 H   0  0  0  0  0  0  0  0  0  0  0  0
    2.6781    5.7351    0.0000 H   0  0  0  0  0  0  0  0  0  0  0  0
    1.9819    3.8732    0.0000 H   0  0  0  0  0  0  0  0  0  0  0  0
    4.4970    5.4144    0.0000 H   0  0  0  0  0  0  0  0  0  0  0  0
    5.3934    5.3013    0.0000 H   0  0  0  0  0  0  0  0  0  0  0  0
    7.0693    4.1278    0.0000 H   0  0  0  0  0  0  0  0  0  0  0  0
    8.3691    1.5452    0.0000 H   0  0  0  0  0  0  0  0  0  0  0  0
    6.8942    0.4336    0.0000 H   0  0  0  0  0  0  0  0  0  0  0  0
    7.4822    3.3241    0.0000 H   0  0  0  0  0  0  0  0  0  0  0  0
    3.8934   -0.2035    0.0000 H   0  0  0  0  0  0  0  0  0  0  0  0
    6.1969    0.3282    0.0000 H   0  0  0  0  0  0  0  0  0  0  0  0
    3.3650    1.2483    0.0000 H   0  0  0  0  0  0  0  0  0  0  0  0
  1  2  1  0
  2  3  1  0
  3  4  1  0
  4  5  1  0
  5  6  1  0
  6  7  1  0
  6  8  1  0
  8  9  1  0
  9 10  1  0
 10 11  1  0
 10 12  1  0
 12 13  1  0
 13 14  1  0
 14 15  1  0
 15 16  1  0
  4 17  1  0
 17 18  1  0
 17 19  1  0
 19 20  1  0
 20 21  1  0
 20 22  1  0
 16 13  1  0
 20 17  1  0
  1 23  1  0
  1 24  1  0
  1 25  1  0
  2 26  1  0
  2 27  1  0
  3 28  1  0
  3 29  1  0
  4 30  1  0
  5 31  1  0
  5 32  1  0
  6 33  1  0
  7 34  1  0
  7 35  1  0
  7 36  1  0
  8 37  1  0
  8 38  1  0
  9 39  1  0
  9 40  1  0
 10 41  1  0
 11 42  1  0
 11 43  1  0
 11 44  1  0
 12 45  1  0
 12 46  1  0
 13 47  1  0
 14 48  1  0
 14 49  1  0
 15 50  1  0
 16 51  1  0
 16 52  1  0
 18 53  1  0
 18 54  1  0
 18 55  1  0
 19 56  1  0
 19 57  1  0
 21 58  1  0
 21 59  1  0
 21 60  1  0
 22 61  1  0
 22 62  1  0
 22 63  1  0
M  END
$$$$
