
     RDKit          2D

 21 23  0  0  0  0  0  0  0  0999 V2000
   -5.6507    2.1281    0.0000 O   0  0  0  0  0  0  0  0  0  0  0  0
   -4.1734    2.3886    0.0000 C   0  0  0  0  0  0  0  0  0  0  0  0
   -3.2093    1.2395    0.0000 N   0  0  0  0  0  0  0  0  0  0  0  0
   -1.7321    1.5000    0.0000 C   0  0  0  0  0  0  0  0  0  0  0  0
   -0.4330    2.2500    0.0000 C   0  0  0  0  0  0  0  0  0  0  0  0
    0.8660    1.5000    0.0000 C   0  0  0  0  0  0  0  0  0  0  0  0
    0.8660    0.0000    0.0000 C   0  0  0  0  0  0  0  0  0  0  0  0
   -0.4330    0.7500    0.0000 C   0  0  0  0  0  0  0  0  0  0  0  0
   -1.7321    0.0000    0.0000 C   0  0  0  0  0  0  0  0  0  0  0  0
   -0.4330   -0.7500    0.0000 C   0  0  0  0  0  0  0  0  0  0  0  0
   -3.6604    3.7981    0.0000 H   0  0  0  0  0  0  0  0  0  0  0  0
   -3.8903   -0.0970    0.0000 H   0  0  0  0  0  0  0  0  0  0  0  0
   -2.2451    2.9095    0.0000 H   0  0  0  0  0  0  0  0  0  0  0  0
   -1.3972    3.3991    0.0000 H   0  0  0  0  0  0  0  0  0  0  0  0
    0.5312    3.3991    0.0000 H   0  0  0  0  0  0  0  0  0  0  0  0
    1.3791    2.9095    0.0000 H   0  0  0  0  0  0  0  0  0  0  0  0
    2.3432    1.2395    0.0000 H   0  0  0  0  0  0  0  0  0  0  0  0
    2.3660    0.0000    0.0000 H   0  0  0  0  0  0  0  0  0  0  0  0
   -0.2401    1.5235    0.0000 H   0  0  0  0  0  0  0  0  0  0  0  0
   -3.2209   -0.1828    0.0000 H   0  0  0  0  0  0  0  0  0  0  0  0
   -0.4330   -2.2500    0.0000 H   0  0  0  0  0  0  0  0  0  0  0  0
  1  2  2  0
  2  3  1  0
  3  4  1  0
  4  5  1  0
  5  6  1  0
  6  7  1  0
  7  8  1  0
  8  9  1  0
  9 10  1  0
  9  4  1  0
 10  7  1  0
 10  8  1  0
  2 11  1  0
  3 12  1  0
  4 13  1  0
  5 14  1  0
  5 15  1  0
  6 16  1  0
  6 17  1  0
  7 18  1  0
  8 19  1  0
  9 20  1  0
 10 21  1  0
M  END
$$$$
