
     RDKit          2D

 32 35  0  0  0  0  0  0  0  0999 V2000
   -5.0325    1.9095    0.0000 O   0  0  0  0  0  0  0  0  0  0  0  0
   -4.9204    0.4137    0.0000 C   0  0  0  0  0  0  0  0  0  0  0  0
   -4.8083   -1.0821    0.0000 O   0  0  0  0  0  0  0  0  0  0  0  0
   -3.3125   -0.9700    0.0000 C   0  0  0  0  0  0  0  0  0  0  0  0
   -3.4246    0.5258    0.0000 C   0  0  0  0  0  0  0  0  0  0  0  0
   -1.9288    0.6379    0.0000 C   0  0  0  0  0  0  0  0  0  0  0  0
   -0.4330    0.7500    0.0000 C   0  0  0  0  0  0  0  0  0  0  0  0
    0.8660    0.0000    0.0000 C   0  0  0  0  0  0  0  0  0  0  0  0
    2.2623    0.5480    0.0000 C   0  0  0  0  0  0  0  0  0  0  0  0
    2.7045    1.9814    0.0000 C   0  0  0  0  0  0  0  0  0  0  0  0
    1.8595    3.2207    0.0000 C   0  0  0  0  0  0  0  0  0  0  0  0
    3.1786    3.9349    0.0000 F   0  0  0  0  0  0  0  0  0  0  0  0
    0.3637    3.3328    0.0000 C   0  0  0  0  0  0  0  0  0  0  0  0
   -0.6566    2.2332    0.0000 C   0  0  0  0  0  0  0  0  0  0  0  0
   -0.4330   -0.7500    0.0000 C   0  0  0  0  0  0  0  0  0  0  0  0
   -6.3840    2.5603    0.0000 H   0  0  0  0  0  0  0  0  0  0  0  0
   -6.4162    0.3016    0.0000 H   0  0  0  0  0  0  0  0  0  0  0  0
   -3.2004   -2.4658    0.0000 H   0  0  0  0  0  0  0  0  0  0  0  0
   -2.4278   -1.0120    0.0000 H   0  0  0  0  0  0  0  0  0  0  0  0
   -3.5367    2.0216    0.0000 H   0  0  0  0  0  0  0  0  0  0  0  0
   -1.7555   -0.2307    0.0000 H   0  0  0  0  0  0  0  0  0  0  0  0
   -2.1666    1.8294    0.0000 H   0  0  0  0  0  0  0  0  0  0  0  0
    1.5169   -1.3515    0.0000 H   0  0  0  0  0  0  0  0  0  0  0  0
    2.4859   -0.9352    0.0000 H   0  0  0  0  0  0  0  0  0  0  0  0
    3.7333    0.2544    0.0000 H   0  0  0  0  0  0  0  0  0  0  0  0
    4.0852    1.3953    0.0000 H   0  0  0  0  0  0  0  0  0  0  0  0
    3.8512    2.9484    0.0000 H   0  0  0  0  0  0  0  0  0  0  0  0
    1.8184    4.7202    0.0000 H   0  0  0  0  0  0  0  0  0  0  0  0
    0.6278    4.8094    0.0000 H   0  0  0  0  0  0  0  0  0  0  0  0
   -0.9354    4.0828    0.0000 H   0  0  0  0  0  0  0  0  0  0  0  0
   -1.7653    2.7302    0.0000 H   0  0  0  0  0  0  0  0  0  0  0  0
   -1.1830   -2.0490    0.0000 H   0  0  0  0  0  0  0  0  0  0  0  0
  1  2  1  0
  2  3  1  0
  3  4  1  0
  4  5  1  0
  5  6  1  0
  6  7  1  0
  7  8  1  0
  8  9  1  0
  9 10  1  0
 10 11  1  0
 11 12  1  0
 11 13  1  0
 13 14  1  0
 14 15  1  0
  5  2  1  0
 14  7  1  0
 15  7  1  0
 15  8  1  0
  1 16  1  0
  2 17  1  0
  4 18  1  0
  4 19  1  0
  5 20  1  0
  6 21  1  0
  6 22  1  0
  8 23  1  0
  9 24  1  0
  9 25  1  0
 10 26  1  0
 10 27  1  0
 11 28  1  0
 13 29  1  0
 13 30  1  0
 14 31  1  0
 15 32  1  0
M  END
$$$$
