
     RDKit          2D

 26 29  0  0  0  0  0  0  0  0999 V2000
   -0.8985   -4.8310    0.0000 C   0  0  0  0  0  0  0  0  0  0  0  0
   -2.3330   -5.2696    0.0000 C   0  0  0  0  0  0  0  0  0  0  0  0
   -1.9956   -3.8080    0.0000 C   0  0  0  0  0  0  0  0  0  0  0  0
   -1.1786   -2.5500    0.0000 N   0  0  0  0  0  0  0  0  0  0  0  0
   -1.8596   -1.2135    0.0000 C   0  0  0  0  0  0  0  0  0  0  0  0
   -3.0731   -2.0952    0.0000 C   0  0  0  0  0  0  0  0  0  0  0  0
   -3.9548   -0.8817    0.0000 N   0  0  0  0  0  0  0  0  0  0  0  0
   -2.7413    0.0000    0.0000 C   0  0  0  0  0  0  0  0  0  0  0  0
   -1.8596    1.2135    0.0000 N   0  0  0  0  0  0  0  0  0  0  0  0
   -0.4330    0.7500    0.0000 C   0  0  0  0  0  0  0  0  0  0  0  0
    0.8660    0.0000    0.0000 N   0  0  0  0  0  0  0  0  0  0  0  0
   -0.4330   -0.7500    0.0000 C   0  0  0  0  0  0  0  0  0  0  0  0
   -0.2176   -6.1675    0.0000 H   0  0  0  0  0  0  0  0  0  0  0  0
    0.2994   -3.9283    0.0000 H   0  0  0  0  0  0  0  0  0  0  0  0
   -3.8309   -5.1911    0.0000 H   0  0  0  0  0  0  0  0  0  0  0  0
   -2.1502   -6.7584    0.0000 H   0  0  0  0  0  0  0  0  0  0  0  0
   -2.9015   -3.4235    0.0000 H   0  0  0  0  0  0  0  0  0  0  0  0
    0.2986   -2.8105    0.0000 H   0  0  0  0  0  0  0  0  0  0  0  0
   -4.2866   -2.9769    0.0000 H   0  0  0  0  0  0  0  0  0  0  0  0
   -2.7745   -2.8343    0.0000 H   0  0  0  0  0  0  0  0  0  0  0  0
   -5.4363   -0.6470    0.0000 H   0  0  0  0  0  0  0  0  0  0  0  0
   -3.8019    1.0607    0.0000 H   0  0  0  0  0  0  0  0  0  0  0  0
   -2.3231    2.6401    0.0000 H   0  0  0  0  0  0  0  0  0  0  0  0
    0.1771    2.1203    0.0000 H   0  0  0  0  0  0  0  0  0  0  0  0
    2.3660    0.0000    0.0000 H   0  0  0  0  0  0  0  0  0  0  0  0
    0.3396   -2.0357    0.0000 H   0  0  0  0  0  0  0  0  0  0  0  0
  1  2  1  0
  2  3  1  0
  3  4  1  0
  5  4  1  6
  5  6  1  0
  6  7  1  0
  7  8  1  0
  8  9  1  0
  9 10  1  0
 10 11  1  0
 11 12  1  0
  3  1  1  0
  8  5  1  0
 12 10  1  0
 12  5  1  0
  1 13  1  0
  1 14  1  0
  2 15  1  0
  2 16  1  0
  3 17  1  0
  4 18  1  0
  6 19  1  0
  6 20  1  0
  7 21  1  0
  8 22  1  6
  9 23  1  0
 10 24  1  6
 11 25  1  0
 12 26  1  6
M  END
$$$$
