
     RDKit          2D

106116  0  0  0  0  0  0  0  0999 V2000
   -0.4330    3.7500    0.0000 C   0  0  0  0  0  0  0  0  0  0  0  0
   -0.4330    2.2500    0.0000 C   0  0  0  0  0  0  0  0  0  0  0  0
   -0.4330    0.7500    0.0000 C   0  0  0  0  0  0  0  0  0  0  0  0
    0.8660    0.0000    0.0000 C   0  0  0  0  0  0  0  0  0  0  0  0
    1.8302    1.1491    0.0000 C   0  0  0  0  0  0  0  0  0  0  0  0
   -0.4330   -0.7500    0.0000 C   0  0  0  0  0  0  0  0  0  0  0  0
   -1.7321    0.0000    0.0000 C   0  0  0  0  0  0  0  0  0  0  0  0
   -1.7321   -1.5000    0.0000 C   0  0  0  0  0  0  0  0  0  0  0  0
   -3.2321   -1.5000    0.0000 C   0  0  0  0  0  0  0  0  0  0  0  0
   -3.9821   -2.7990    0.0000 C   0  0  0  0  0  0  0  0  0  0  0  0
   -3.2321   -4.0981    0.0000 C   0  0  0  0  0  0  0  0  0  0  0  0
   -4.5311   -4.8481    0.0000 C   0  0  0  0  0  0  0  0  0  0  0  0
   -5.2811   -3.5490    0.0000 C   0  0  0  0  0  0  0  0  0  0  0  0
   -6.3958   -2.5453    0.0000 C   0  0  0  0  0  0  0  0  0  0  0  0
   -7.6948   -1.7953    0.0000 C   0  0  0  0  0  0  0  0  0  0  0  0
   -9.1721   -1.5349    0.0000 C   0  0  0  0  0  0  0  0  0  0  0  0
   -8.6590   -2.9444    0.0000 C   0  0  0  0  0  0  0  0  0  0  0  0
   -9.9581   -3.6944    0.0000 C   0  0  0  0  0  0  0  0  0  0  0  0
  -11.2571   -4.4444    0.0000 C   0  0  0  0  0  0  0  0  0  0  0  0
  -12.7343   -4.7049    0.0000 C   0  0  0  0  0  0  0  0  0  0  0  0
  -12.2213   -3.2953    0.0000 C   0  0  0  0  0  0  0  0  0  0  0  0
  -13.5203   -2.5453    0.0000 C   0  0  0  0  0  0  0  0  0  0  0  0
  -14.8194   -1.7953    0.0000 C   0  0  0  0  0  0  0  0  0  0  0  0
  -16.1184   -1.0453    0.0000 C   0  0  0  0  0  0  0  0  0  0  0  0
  -17.5956   -0.7849    0.0000 C   0  0  0  0  0  0  0  0  0  0  0  0
  -17.0826   -2.1944    0.0000 C   0  0  0  0  0  0  0  0  0  0  0  0
   -5.7857   -1.1750    0.0000 C   0  0  0  0  0  0  0  0  0  0  0  0
   -6.3958    0.1953    0.0000 C   0  0  0  0  0  0  0  0  0  0  0  0
   -5.5141    1.4088    0.0000 C   0  0  0  0  0  0  0  0  0  0  0  0
   -4.0223    1.2520    0.0000 C   0  0  0  0  0  0  0  0  0  0  0  0
   -3.4122   -0.1183    0.0000 C   0  0  0  0  0  0  0  0  0  0  0  0
   -3.5421    0.3242    0.0000 C   0  0  0  0  0  0  0  0  0  0  0  0
   -3.4047    0.0958    0.0000 C   0  0  0  0  0  0  0  0  0  0  0  0
   -3.8582    1.1144    0.0000 C   0  0  0  0  0  0  0  0  0  0  0  0
   -3.7804    0.8595    0.0000 C   0  0  0  0  0  0  0  0  0  0  0  0
   -4.4889    3.1231    0.0000 C   0  0  0  0  0  0  0  0  0  0  0  0
   -2.7272    3.9074    0.0000 C   0  0  0  0  0  0  0  0  0  0  0  0
   -2.3138    5.3493    0.0000 C   0  0  0  0  0  0  0  0  0  0  0  0
   -1.2853    3.4940    0.0000 C   0  0  0  0  0  0  0  0  0  0  0  0
   -4.1691    4.3209    0.0000 O   0  0  0  0  0  0  0  0  0  0  0  0
   -4.2939   -1.3318    0.0000 C   0  0  0  0  0  0  0  0  0  0  0  0
   -1.7321   -4.0981    0.0000 C   0  0  0  0  0  0  0  0  0  0  0  0
   -0.3225   -4.6111    0.0000 C   0  0  0  0  0  0  0  0  0  0  0  0
   -0.9821   -2.7990    0.0000 O   0  0  0  0  0  0  0  0  0  0  0  0
   -0.0701    5.2054    0.0000 H   0  0  0  0  0  0  0  0  0  0  0  0
    1.0670    3.7500    0.0000 H   0  0  0  0  0  0  0  0  0  0  0  0
   -1.8884    3.3870    0.0000 H   0  0  0  0  0  0  0  0  0  0  0  0
   -1.8884    2.6130    0.0000 H   0  0  0  0  0  0  0  0  0  0  0  0
    1.0558    2.4328    0.0000 H   0  0  0  0  0  0  0  0  0  0  0  0
    1.8302   -1.1491    0.0000 H   0  0  0  0  0  0  0  0  0  0  0  0
    2.7944    2.2981    0.0000 H   0  0  0  0  0  0  0  0  0  0  0  0
    2.9793    0.1849    0.0000 H   0  0  0  0  0  0  0  0  0  0  0  0
    0.8072    2.2461    0.0000 H   0  0  0  0  0  0  0  0  0  0  0  0
   -2.9300    0.9028    0.0000 H   0  0  0  0  0  0  0  0  0  0  0  0
   -4.4756   -0.6611    0.0000 H   0  0  0  0  0  0  0  0  0  0  0  0
   -2.7935   -0.0656    0.0000 H   0  0  0  0  0  0  0  0  0  0  0  0
   -3.0233   -5.5835    0.0000 H   0  0  0  0  0  0  0  0  0  0  0  0
   -5.8301   -5.5981    0.0000 H   0  0  0  0  0  0  0  0  0  0  0  0
   -3.7811   -6.1471    0.0000 H   0  0  0  0  0  0  0  0  0  0  0  0
   -6.4468   -4.4930    0.0000 H   0  0  0  0  0  0  0  0  0  0  0  0
   -7.1230   -3.8573    0.0000 H   0  0  0  0  0  0  0  0  0  0  0  0
   -7.5381   -0.3036    0.0000 H   0  0  0  0  0  0  0  0  0  0  0  0
   -9.1721   -0.0349    0.0000 H   0  0  0  0  0  0  0  0  0  0  0  0
  -10.6684   -1.4302    0.0000 H   0  0  0  0  0  0  0  0  0  0  0  0
   -7.8421   -4.2024    0.0000 H   0  0  0  0  0  0  0  0  0  0  0  0
   -9.2081   -4.9934    0.0000 H   0  0  0  0  0  0  0  0  0  0  0  0
  -10.7081   -2.3954    0.0000 H   0  0  0  0  0  0  0  0  0  0  0  0
  -10.7441   -5.8539    0.0000 H   0  0  0  0  0  0  0  0  0  0  0  0
  -12.7343   -6.2049    0.0000 H   0  0  0  0  0  0  0  0  0  0  0  0
  -14.2323   -4.6264    0.0000 H   0  0  0  0  0  0  0  0  0  0  0  0
  -11.5638   -1.9471    0.0000 H   0  0  0  0  0  0  0  0  0  0  0  0
  -12.7703   -1.2463    0.0000 H   0  0  0  0  0  0  0  0  0  0  0  0
  -14.4231   -3.7433    0.0000 H   0  0  0  0  0  0  0  0  0  0  0  0
  -14.0694   -0.4963    0.0000 H   0  0  0  0  0  0  0  0  0  0  0  0
  -15.4054   -3.1761    0.0000 H   0  0  0  0  0  0  0  0  0  0  0  0
  -15.6054    0.3642    0.0000 H   0  0  0  0  0  0  0  0  0  0  0  0
  -17.5956    0.7151    0.0000 H   0  0  0  0  0  0  0  0  0  0  0  0
  -19.0728   -1.0453    0.0000 H   0  0  0  0  0  0  0  0  0  0  0  0
  -18.3816   -2.9444    0.0000 H   0  0  0  0  0  0  0  0  0  0  0  0
  -16.2657   -3.4524    0.0000 H   0  0  0  0  0  0  0  0  0  0  0  0
   -7.2411   -0.8121    0.0000 H   0  0  0  0  0  0  0  0  0  0  0  0
   -7.4378    1.2743    0.0000 H   0  0  0  0  0  0  0  0  0  0  0  0
   -7.8054   -0.3177    0.0000 H   0  0  0  0  0  0  0  0  0  0  0  0
   -5.6450    2.9031    0.0000 H   0  0  0  0  0  0  0  0  0  0  0  0
   -6.8623    2.0664    0.0000 H   0  0  0  0  0  0  0  0  0  0  0  0
   -4.7949    2.5378    0.0000 H   0  0  0  0  0  0  0  0  0  0  0  0
   -4.9040    0.0385    0.0000 H   0  0  0  0  0  0  0  0  0  0  0  0
   -0.4532   -0.5869    0.0000 H   0  0  0  0  0  0  0  0  0  0  0  0
   -1.9727   -1.7742    0.0000 H   0  0  0  0  0  0  0  0  0  0  0  0
    0.4530    0.7816    0.0000 H   0  0  0  0  0  0  0  0  0  0  0  0
   -0.7672    3.5223    0.0000 H   0  0  0  0  0  0  0  0  0  0  0  0
   -5.8370    3.7807    0.0000 H   0  0  0  0  0  0  0  0  0  0  0  0
   -4.1771    4.5903    0.0000 H   0  0  0  0  0  0  0  0  0  0  0  0
   -5.4531    1.9741    0.0000 H   0  0  0  0  0  0  0  0  0  0  0  0
   -1.9003    6.7912    0.0000 H   0  0  0  0  0  0  0  0  0  0  0  0
   -3.6128    6.0994    0.0000 H   0  0  0  0  0  0  0  0  0  0  0  0
   -3.7556    5.7628    0.0000 H   0  0  0  0  0  0  0  0  0  0  0  0
    0.1566    3.0805    0.0000 H   0  0  0  0  0  0  0  0  0  0  0  0
   -0.8719    4.9359    0.0000 H   0  0  0  0  0  0  0  0  0  0  0  0
   -1.2331    4.9931    0.0000 H   0  0  0  0  0  0  0  0  0  0  0  0
   -4.8734    5.6453    0.0000 H   0  0  0  0  0  0  0  0  0  0  0  0
   -5.5074   -2.2135    0.0000 H   0  0  0  0  0  0  0  0  0  0  0  0
   -1.8105   -5.5960    0.0000 H   0  0  0  0  0  0  0  0  0  0  0  0
    1.0870   -5.1241    0.0000 H   0  0  0  0  0  0  0  0  0  0  0  0
   -0.8355   -6.0206    0.0000 H   0  0  0  0  0  0  0  0  0  0  0  0
    0.1905   -3.2016    0.0000 H   0  0  0  0  0  0  0  0  0  0  0  0
  1  2  1  0
  2  3  1  0
  3  4  1  0
  4  5  1  0
  4  6  1  0
  6  7  1  0
  7  8  1  0
  8  9  1  0
  9 10  1  0
 10 11  1  0
 11 12  1  0
 12 13  1  0
 13 14  1  0
 14 15  1  0
 15 16  1  0
 16 17  1  0
 17 18  1  0
 18 19  1  0
 19 20  1  0
 20 21  1  0
 21 22  1  0
 22 23  1  0
 23 24  1  0
 24 25  1  0
 25 26  1  0
 14 27  1  0
 27 28  1  0
 28 29  1  0
 29 30  1  0
 30 31  1  0
 31 32  1  0
 32 33  1  0
 33 34  2  0
 34 35  1  0
 35 36  1  0
 35 37  1  0
 37 38  1  0
 37 39  1  0
 37 40  1  0
 31 41  1  0
 11 42  1  0
 42 43  1  0
 42 44  1  0
  6  3  1  0
 44  8  1  0
  7  3  1  0
 13 10  1  0
 17 15  1  0
 21 19  1  0
 26 24  1  0
 41 27  1  0
  8  6  1  0
 41 10  1  0
 35 30  1  0
  1 45  1  0
  1 46  1  0
  1 47  1  0
  2 48  1  0
  2 49  1  0
  4 50  1  0
  5 51  1  0
  5 52  1  0
  5 53  1  0
  7 54  1  0
  9 55  1  0
  9 56  1  0
 11 57  1  0
 12 58  1  0
 12 59  1  0
 13 60  1  0
 14 61  1  0
 15 62  1  0
 16 63  1  0
 16 64  1  0
 17 65  1  0
 18 66  1  0
 18 67  1  0
 19 68  1  0
 20 69  1  0
 20 70  1  0
 21 71  1  0
 22 72  1  0
 22 73  1  0
 23 74  1  0
 23 75  1  0
 24 76  1  0
 25 77  1  0
 25 78  1  0
 26 79  1  0
 26 80  1  0
 27 81  1  0
 28 82  1  0
 28 83  1  0
 29 84  1  0
 29 85  1  0
 30 86  1  0
 31 87  1  0
 32 88  1  0
 32 89  1  0
 33 90  1  0
 34 91  1  0
 36 92  1  0
 36 93  1  0
 36 94  1  0
 38 95  1  0
 38 96  1  0
 38 97  1  0
 39 98  1  0
 39 99  1  0
 39100  1  0
 40101  1  0
 41102  1  0
 42103  1  0
 43104  1  0
 43105  1  0
 43106  1  0
M  END
$$$$
