
     RDKit          2D

 36 39  0  0  0  0  0  0  0  0999 V2000
   -6.6478   10.3249    0.0000 O   0  0  0  0  0  0  0  0  0  0  0  0
   -5.6836    9.1758    0.0000 C   0  0  0  0  0  0  0  0  0  0  0  0
   -4.3845    9.9258    0.0000 C   0  0  0  0  0  0  0  0  0  0  0  0
   -4.3845    8.4258    0.0000 C   0  0  0  0  0  0  0  0  0  0  0  0
   -4.8976    7.0163    0.0000 C   0  0  0  0  0  0  0  0  0  0  0  0
   -5.4106    5.6067    0.0000 C   0  0  0  0  0  0  0  0  0  0  0  0
   -5.9236    4.1972    0.0000 C   0  0  0  0  0  0  0  0  0  0  0  0
   -5.9236    2.6972    0.0000 C   0  0  0  0  0  0  0  0  0  0  0  0
   -4.6246    3.4472    0.0000 C   0  0  0  0  0  0  0  0  0  0  0  0
   -3.6604    2.2981    0.0000 C   0  0  0  0  0  0  0  0  0  0  0  0
   -2.6962    1.1491    0.0000 C   0  0  0  0  0  0  0  0  0  0  0  0
   -1.7321    0.0000    0.0000 C   0  0  0  0  0  0  0  0  0  0  0  0
   -0.4330    0.7500    0.0000 C   0  0  0  0  0  0  0  0  0  0  0  0
    0.8660    0.0000    0.0000 O   0  0  0  0  0  0  0  0  0  0  0  0
   -0.4330   -0.7500    0.0000 C   0  0  0  0  0  0  0  0  0  0  0  0
   -0.4330   -2.2500    0.0000 O   0  0  0  0  0  0  0  0  0  0  0  0
   -6.1347   11.7344    0.0000 H   0  0  0  0  0  0  0  0  0  0  0  0
   -6.6709    8.2551    0.0000 H   0  0  0  0  0  0  0  0  0  0  0  0
   -2.9073   10.1863    0.0000 H   0  0  0  0  0  0  0  0  0  0  0  0
   -4.8976   11.3354    0.0000 H   0  0  0  0  0  0  0  0  0  0  0  0
   -2.9073    8.1653    0.0000 H   0  0  0  0  0  0  0  0  0  0  0  0
   -6.2130    7.3199    0.0000 H   0  0  0  0  0  0  0  0  0  0  0  0
   -3.4880    6.5032    0.0000 H   0  0  0  0  0  0  0  0  0  0  0  0
   -4.0952    5.3031    0.0000 H   0  0  0  0  0  0  0  0  0  0  0  0
   -6.8201    6.1198    0.0000 H   0  0  0  0  0  0  0  0  0  0  0  0
   -7.4008    4.4577    0.0000 H   0  0  0  0  0  0  0  0  0  0  0  0
   -7.4008    2.4367    0.0000 H   0  0  0  0  0  0  0  0  0  0  0  0
   -5.6200    1.3818    0.0000 H   0  0  0  0  0  0  0  0  0  0  0  0
   -3.6372    4.3679    0.0000 H   0  0  0  0  0  0  0  0  0  0  0  0
   -4.5811    1.3108    0.0000 H   0  0  0  0  0  0  0  0  0  0  0  0
   -2.5113    3.2623    0.0000 H   0  0  0  0  0  0  0  0  0  0  0  0
   -1.5472    2.1132    0.0000 H   0  0  0  0  0  0  0  0  0  0  0  0
   -3.8453    0.1849    0.0000 H   0  0  0  0  0  0  0  0  0  0  0  0
   -2.6962   -1.1491    0.0000 H   0  0  0  0  0  0  0  0  0  0  0  0
   -0.4330    2.2500    0.0000 H   0  0  0  0  0  0  0  0  0  0  0  0
    0.8660   -3.0000    0.0000 H   0  0  0  0  0  0  0  0  0  0  0  0
  1  2  1  0
  2  3  1  0
  3  4  1  0
  4  5  1  0
  5  6  1  0
  6  7  1  0
  7  8  1  0
  8  9  1  0
  9 10  1  0
 10 11  1  0
 11 12  1  0
 12 13  1  0
 13 14  1  0
 14 15  1  0
 15 16  1  0
  4  2  1  0
  9  7  1  0
 15 12  1  0
 15 13  1  0
  1 17  1  0
  2 18  1  0
  3 19  1  0
  3 20  1  0
  4 21  1  0
  5 22  1  0
  5 23  1  0
  6 24  1  0
  6 25  1  0
  7 26  1  0
  8 27  1  0
  8 28  1  0
  9 29  1  0
 10 30  1  0
 10 31  1  0
 11 32  1  0
 11 33  1  0
 12 34  1  0
 13 35  1  0
 16 36  1  0
M  END
$$$$
