
     RDKit          2D

 80 87  0  0  0  0  0  0  0  0999 V2000
   -6.2591   -2.2213    0.0000 C   0  0  0  0  0  0  0  0  0  0  0  0
   -6.7624   -0.8083    0.0000 C   0  0  0  0  0  0  0  0  0  0  0  0
   -8.2377   -0.5375    0.0000 C   0  0  0  0  0  0  0  0  0  0  0  0
   -5.7902    0.3341    0.0000 C   0  0  0  0  0  0  0  0  0  0  0  0
   -4.8181    1.4764    0.0000 C   0  0  0  0  0  0  0  0  0  0  0  0
   -6.1481    2.1700    0.0000 O   0  0  0  0  0  0  0  0  0  0  0  0
   -7.5196    1.5626    0.0000 C   0  0  0  0  0  0  0  0  0  0  0  0
   -7.8998    0.1116    0.0000 C   0  0  0  0  0  0  0  0  0  0  0  0
   -7.0025   -1.0904    0.0000 C   0  0  0  0  0  0  0  0  0  0  0  0
   -5.5032   -1.1382    0.0000 C   0  0  0  0  0  0  0  0  0  0  0  0
   -4.4426   -2.1989    0.0000 C   0  0  0  0  0  0  0  0  0  0  0  0
   -4.0543   -0.7500    0.0000 C   0  0  0  0  0  0  0  0  0  0  0  0
   -4.0543    0.7500    0.0000 C   0  0  0  0  0  0  0  0  0  0  0  0
   -2.9937    1.8107    0.0000 C   0  0  0  0  0  0  0  0  0  0  0  0
   -1.4937    1.8107    0.0000 C   0  0  0  0  0  0  0  0  0  0  0  0
   -0.4330    0.7500    0.0000 C   0  0  0  0  0  0  0  0  0  0  0  0
    0.4801    1.9400    0.0000 C   0  0  0  0  0  0  0  0  0  0  0  0
    1.3933    3.1301    0.0000 C   0  0  0  0  0  0  0  0  0  0  0  0
    2.3064    4.3201    0.0000 C   0  0  0  0  0  0  0  0  0  0  0  0
    3.2196    5.5101    0.0000 C   0  0  0  0  0  0  0  0  0  0  0  0
    1.1164    5.2332    0.0000 C   0  0  0  0  0  0  0  0  0  0  0  0
    0.3104    6.4983    0.0000 C   0  0  0  0  0  0  0  0  0  0  0  0
    1.8090    6.5637    0.0000 C   0  0  0  0  0  0  0  0  0  0  0  0
    0.8660    0.0000    0.0000 C   0  0  0  0  0  0  0  0  0  0  0  0
   -0.4330   -0.7500    0.0000 C   0  0  0  0  0  0  0  0  0  0  0  0
   -1.4937   -1.8107    0.0000 C   0  0  0  0  0  0  0  0  0  0  0  0
   -2.9937   -1.8107    0.0000 C   0  0  0  0  0  0  0  0  0  0  0  0
   -2.7979   -3.2978    0.0000 C   0  0  0  0  0  0  0  0  0  0  0  0
   -2.6021   -4.7850    0.0000 C   0  0  0  0  0  0  0  0  0  0  0  0
   -4.2851   -3.4936    0.0000 N   0  0  0  0  0  0  0  0  0  0  0  0
   -4.8591   -4.8794    0.0000 C   0  0  0  0  0  0  0  0  0  0  0  0
   -4.9245   -6.3780    0.0000 C   0  0  0  0  0  0  0  0  0  0  0  0
   -3.5940   -5.6854    0.0000 C   0  0  0  0  0  0  0  0  0  0  0  0
   -7.2313   -3.3637    0.0000 H   0  0  0  0  0  0  0  0  0  0  0  0
   -4.8278   -2.6699    0.0000 H   0  0  0  0  0  0  0  0  0  0  0  0
   -9.7131   -0.2668    0.0000 H   0  0  0  0  0  0  0  0  0  0  0  0
   -8.6863   -1.9689    0.0000 H   0  0  0  0  0  0  0  0  0  0  0  0
   -8.3320    0.9595    0.0000 H   0  0  0  0  0  0  0  0  0  0  0  0
   -4.9171   -0.8856    0.0000 H   0  0  0  0  0  0  0  0  0  0  0  0
   -7.1338    1.0009    0.0000 H   0  0  0  0  0  0  0  0  0  0  0  0
   -4.2382    0.0930    0.0000 H   0  0  0  0  0  0  0  0  0  0  0  0
   -9.0018    1.7928    0.0000 H   0  0  0  0  0  0  0  0  0  0  0  0
   -7.8066    3.0349    0.0000 H   0  0  0  0  0  0  0  0  0  0  0  0
   -9.0040   -0.9038    0.0000 H   0  0  0  0  0  0  0  0  0  0  0  0
   -9.3045    0.6378    0.0000 H   0  0  0  0  0  0  0  0  0  0  0  0
   -7.0803   -2.5884    0.0000 H   0  0  0  0  0  0  0  0  0  0  0  0
   -8.1862   -2.0116    0.0000 H   0  0  0  0  0  0  0  0  0  0  0  0
   -5.1698   -3.5108    0.0000 H   0  0  0  0  0  0  0  0  0  0  0  0
   -5.0964    1.8290    0.0000 H   0  0  0  0  0  0  0  0  0  0  0  0
   -5.3662    0.0227    0.0000 H   0  0  0  0  0  0  0  0  0  0  0  0
   -0.2957    2.7134    0.0000 H   0  0  0  0  0  0  0  0  0  0  0  0
   -1.8819    3.2595    0.0000 H   0  0  0  0  0  0  0  0  0  0  0  0
    1.7726    1.1788    0.0000 H   0  0  0  0  0  0  0  0  0  0  0  0
   -0.5897    2.9914    0.0000 H   0  0  0  0  0  0  0  0  0  0  0  0
    2.5833    2.2169    0.0000 H   0  0  0  0  0  0  0  0  0  0  0  0
    0.1008    3.8913    0.0000 H   0  0  0  0  0  0  0  0  0  0  0  0
    3.4964    3.4069    0.0000 H   0  0  0  0  0  0  0  0  0  0  0  0
    4.1327    6.7002    0.0000 H   0  0  0  0  0  0  0  0  0  0  0  0
    4.4096    4.5970    0.0000 H   0  0  0  0  0  0  0  0  0  0  0  0
    2.2858    6.6841    0.0000 H   0  0  0  0  0  0  0  0  0  0  0  0
   -0.1048    4.3622    0.0000 H   0  0  0  0  0  0  0  0  0  0  0  0
   -1.0754    5.9243    0.0000 H   0  0  0  0  0  0  0  0  0  0  0  0
   -0.0142    7.9628    0.0000 H   0  0  0  0  0  0  0  0  0  0  0  0
    2.0048    8.0509    0.0000 H   0  0  0  0  0  0  0  0  0  0  0  0
    3.3062    6.4723    0.0000 H   0  0  0  0  0  0  0  0  0  0  0  0
    1.9631    1.0230    0.0000 H   0  0  0  0  0  0  0  0  0  0  0  0
    1.8302   -1.1491    0.0000 H   0  0  0  0  0  0  0  0  0  0  0  0
    0.4801   -1.9400    0.0000 H   0  0  0  0  0  0  0  0  0  0  0  0
   -1.7024   -3.2961    0.0000 H   0  0  0  0  0  0  0  0  0  0  0  0
   -0.1946   -2.5607    0.0000 H   0  0  0  0  0  0  0  0  0  0  0  0
   -1.2979   -3.2848    0.0000 H   0  0  0  0  0  0  0  0  0  0  0  0
   -2.2265   -6.2372    0.0000 H   0  0  0  0  0  0  0  0  0  0  0  0
   -3.9977   -5.3348    0.0000 H   0  0  0  0  0  0  0  0  0  0  0  0
   -1.1149   -4.5892    0.0000 H   0  0  0  0  0  0  0  0  0  0  0  0
   -5.3364   -2.4238    0.0000 H   0  0  0  0  0  0  0  0  0  0  0  0
   -6.3235   -4.5548    0.0000 H   0  0  0  0  0  0  0  0  0  0  0  0
   -6.4117   -6.5738    0.0000 H   0  0  0  0  0  0  0  0  0  0  0  0
   -4.4734   -7.8086    0.0000 H   0  0  0  0  0  0  0  0  0  0  0  0
   -2.8327   -6.9778    0.0000 H   0  0  0  0  0  0  0  0  0  0  0  0
   -2.3431   -4.8575    0.0000 H   0  0  0  0  0  0  0  0  0  0  0  0
  1  2  2  3
  2  3  1  0
  2  4  1  0
  4  5  1  0
  5  6  1  0
  6  7  1  0
  7  8  1  0
  8  9  1  0
 10  9  1  1
 10 11  1  0
 11 12  1  0
 12 13  1  6
 14 13  1  6
 14 15  1  0
 15 16  1  0
 16 17  1  6
 17 18  1  0
 18 19  1  0
 19 20  1  0
 19 21  1  0
 21 22  1  0
 22 23  1  0
 16 24  1  0
 24 25  1  0
 25 26  1  0
 27 26  1  1
 27 28  1  0
 28 29  1  0
 28 30  1  0
 30 31  1  0
 31 32  1  0
 32 33  1  0
 14  5  1  0
 25 16  1  0
 33 31  1  0
 12 10  1  0
 23 21  1  0
 14 10  1  0
 27 11  1  0
 27 12  1  0
  1 34  1  0
  1 35  1  0
  3 36  1  0
  3 37  1  0
  3 38  1  0
  4 39  1  0
  4 40  1  0
  5 41  1  6
  7 42  1  0
  7 43  1  0
  8 44  1  0
  8 45  1  0
  9 46  1  0
  9 47  1  0
 11 48  1  6
 13 49  1  0
 13 50  1  0
 15 51  1  0
 15 52  1  0
 17 53  1  0
 17 54  1  0
 18 55  1  0
 18 56  1  0
 19 57  1  6
 20 58  1  0
 20 59  1  0
 20 60  1  0
 21 61  1  0
 22 62  1  0
 22 63  1  0
 23 64  1  0
 23 65  1  0
 24 66  1  0
 24 67  1  0
 25 68  1  6
 26 69  1  0
 26 70  1  0
 28 71  1  1
 29 72  1  0
 29 73  1  0
 29 74  1  0
 30 75  1  0
 31 76  1  0
 32 77  1  0
 32 78  1  0
 33 79  1  0
 33 80  1  0
M  END
$$$$
