
     RDKit          2D

100107  0  0  0  0  0  0  0  0999 V2000
    1.7789   -0.7583    0.0000 C   0  0  0  0  0  0  0  0  0  0  0  0
    0.8882    0.4486    0.0000 C   0  0  0  0  0  0  0  0  0  0  0  0
   -0.0026    1.6555    0.0000 N   0  0  0  0  0  0  0  0  0  0  0  0
   -1.4931    1.4876    0.0000 O   0  0  0  0  0  0  0  0  0  0  0  0
    0.5973    3.0303    0.0000 C   0  0  0  0  0  0  0  0  0  0  0  0
    1.1971    4.4052    0.0000 C   0  0  0  0  0  0  0  0  0  0  0  0
    1.7969    5.7800    0.0000 C   0  0  0  0  0  0  0  0  0  0  0  0
    2.3968    7.1549    0.0000 C   0  0  0  0  0  0  0  0  0  0  0  0
    3.7716    6.5550    0.0000 C   0  0  0  0  0  0  0  0  0  0  0  0
    3.1718    5.1802    0.0000 C   0  0  0  0  0  0  0  0  0  0  0  0
    2.9482    3.6969    0.0000 C   0  0  0  0  0  0  0  0  0  0  0  0
    2.0130    2.5242    0.0000 C   0  0  0  0  0  0  0  0  0  0  0  0
    1.0777    1.3515    0.0000 C   0  0  0  0  0  0  0  0  0  0  0  0
    1.7286    0.0000    0.0000 As  0  0  0  0  0  3  0  0  0  0  0  0
    1.0777   -1.3515    0.0000 C   0  0  0  0  0  0  0  0  0  0  0  0
    2.5401   -1.6852    0.0000 C   0  0  0  0  0  0  0  0  0  0  0  0
   -0.3846   -1.6852    0.0000 C   0  0  0  0  0  0  0  0  0  0  0  0
   -1.5574   -0.7500    0.0000 C   0  0  0  0  0  0  0  0  0  0  0  0
   -1.5574    0.7500    0.0000 C   0  0  0  0  0  0  0  0  0  0  0  0
   -3.0198    0.4162    0.0000 O   0  0  0  0  0  0  0  0  0  0  0  0
   -4.0400    1.5158    0.0000 C   0  0  0  0  0  0  0  0  0  0  0  0
   -5.0603    2.6154    0.0000 C   0  0  0  0  0  0  0  0  0  0  0  0
   -6.0806    3.7150    0.0000 C   0  0  0  0  0  0  0  0  0  0  0  0
   -7.4154    4.3993    0.0000 C   0  0  0  0  0  0  0  0  0  0  0  0
   -7.3406    2.9011    0.0000 C   0  0  0  0  0  0  0  0  0  0  0  0
   -8.8030    2.5674    0.0000 C   0  0  0  0  0  0  0  0  0  0  0  0
   -0.3846    1.6852    0.0000 C   0  0  0  0  0  0  0  0  0  0  0  0
   -1.5574    2.6205    0.0000 C   0  0  0  0  0  0  0  0  0  0  0  0
   -2.7301    3.5557    0.0000 C   0  0  0  0  0  0  0  0  0  0  0  0
   -3.8548    2.5632    0.0000 C   0  0  0  0  0  0  0  0  0  0  0  0
   -2.0128    4.8730    0.0000 C   0  0  0  0  0  0  0  0  0  0  0  0
   -2.0502    6.3726    0.0000 C   0  0  0  0  0  0  0  0  0  0  0  0
   -2.8323    7.6525    0.0000 C   0  0  0  0  0  0  0  0  0  0  0  0
   -1.7076    8.6450    0.0000 O   0  0  0  0  0  0  0  0  0  0  0  0
   -3.5497    6.3352    0.0000 N   0  0  0  0  0  0  0  0  0  0  0  0
   -3.5123    4.8356    0.0000 C   0  0  0  0  0  0  0  0  0  0  0  0
    4.3445    4.2450    0.0000 C   0  0  0  0  0  0  0  0  0  0  0  0
    5.4692    5.2375    0.0000 C   0  0  0  0  0  0  0  0  0  0  0  0
    6.5939    6.2300    0.0000 C   0  0  0  0  0  0  0  0  0  0  0  0
    7.9902    6.7780    0.0000 O   0  0  0  0  0  0  0  0  0  0  0  0
    7.7666    5.2948    0.0000 C   0  0  0  0  0  0  0  0  0  0  0  0
    9.1885    4.8171    0.0000 C   0  0  0  0  0  0  0  0  0  0  0  0
    7.0492    3.9774    0.0000 C   0  0  0  0  0  0  0  0  0  0  0  0
    2.9352   -1.7138    0.0000 H   0  0  0  0  0  0  0  0  0  0  0  0
    2.9858    0.1324    0.0000 H   0  0  0  0  0  0  0  0  0  0  0  0
    0.8234   -1.9146    0.0000 H   0  0  0  0  0  0  0  0  0  0  0  0
    2.0951    1.3393    0.0000 H   0  0  0  0  0  0  0  0  0  0  0  0
   -0.3187   -0.4421    0.0000 H   0  0  0  0  0  0  0  0  0  0  0  0
   -2.0930    0.1127    0.0000 H   0  0  0  0  0  0  0  0  0  0  0  0
    1.7861    2.1157    0.0000 H   0  0  0  0  0  0  0  0  0  0  0  0
   -0.6942    3.7933    0.0000 H   0  0  0  0  0  0  0  0  0  0  0  0
    2.3859    3.4905    0.0000 H   0  0  0  0  0  0  0  0  0  0  0  0
   -0.2406    4.8330    0.0000 H   0  0  0  0  0  0  0  0  0  0  0  0
    0.4221    6.3799    0.0000 H   0  0  0  0  0  0  0  0  0  0  0  0
    1.0219    7.7547    0.0000 H   0  0  0  0  0  0  0  0  0  0  0  0
    2.9966    8.5297    0.0000 H   0  0  0  0  0  0  0  0  0  0  0  0
    4.3715    7.9299    0.0000 H   0  0  0  0  0  0  0  0  0  0  0  0
    5.2701    6.4879    0.0000 H   0  0  0  0  0  0  0  0  0  0  0  0
    3.1840    0.3630    0.0000 H   0  0  0  0  0  0  0  0  0  0  0  0
    1.2606   -2.8403    0.0000 H   0  0  0  0  0  0  0  0  0  0  0  0
    4.0025   -2.0190    0.0000 H   0  0  0  0  0  0  0  0  0  0  0  0
    2.2064   -3.1476    0.0000 H   0  0  0  0  0  0  0  0  0  0  0  0
    3.2179   -0.3471    0.0000 H   0  0  0  0  0  0  0  0  0  0  0  0
    0.0966   -3.1059    0.0000 H   0  0  0  0  0  0  0  0  0  0  0  0
   -1.4346   -2.7564    0.0000 H   0  0  0  0  0  0  0  0  0  0  0  0
   -2.3681   -2.0120    0.0000 H   0  0  0  0  0  0  0  0  0  0  0  0
   -3.0571   -0.7800    0.0000 H   0  0  0  0  0  0  0  0  0  0  0  0
   -2.2082    2.1015    0.0000 H   0  0  0  0  0  0  0  0  0  0  0  0
   -3.0730    2.6625    0.0000 H   0  0  0  0  0  0  0  0  0  0  0  0
   -5.1396    0.4955    0.0000 H   0  0  0  0  0  0  0  0  0  0  0  0
   -6.0273    1.4687    0.0000 H   0  0  0  0  0  0  0  0  0  0  0  0
   -4.0933    3.7621    0.0000 H   0  0  0  0  0  0  0  0  0  0  0  0
   -5.3274    5.0121    0.0000 H   0  0  0  0  0  0  0  0  0  0  0  0
   -6.9732    5.8326    0.0000 H   0  0  0  0  0  0  0  0  0  0  0  0
   -8.8699    4.7658    0.0000 H   0  0  0  0  0  0  0  0  0  0  0  0
   -6.9308    1.4582    0.0000 H   0  0  0  0  0  0  0  0  0  0  0  0
  -10.2654    2.2336    0.0000 H   0  0  0  0  0  0  0  0  0  0  0  0
   -8.4692    1.1050    0.0000 H   0  0  0  0  0  0  0  0  0  0  0  0
   -9.3125    3.9782    0.0000 H   0  0  0  0  0  0  0  0  0  0  0  0
   -0.0802    3.1540    0.0000 H   0  0  0  0  0  0  0  0  0  0  0  0
   -0.6222    3.7932    0.0000 H   0  0  0  0  0  0  0  0  0  0  0  0
   -2.4926    1.4477    0.0000 H   0  0  0  0  0  0  0  0  0  0  0  0
   -4.9795    1.5706    0.0000 H   0  0  0  0  0  0  0  0  0  0  0  0
   -4.8473    3.6878    0.0000 H   0  0  0  0  0  0  0  0  0  0  0  0
   -3.0068    1.3259    0.0000 H   0  0  0  0  0  0  0  0  0  0  0  0
   -0.5546    4.5211    0.0000 H   0  0  0  0  0  0  0  0  0  0  0  0
   -0.6114    6.7968    0.0000 H   0  0  0  0  0  0  0  0  0  0  0  0
   -4.0051    8.5877    0.0000 H   0  0  0  0  0  0  0  0  0  0  0  0
   -2.0049   10.1153    0.0000 H   0  0  0  0  0  0  0  0  0  0  0  0
   -5.0109    4.7722    0.0000 H   0  0  0  0  0  0  0  0  0  0  0  0
    5.1267    2.9650    0.0000 H   0  0  0  0  0  0  0  0  0  0  0  0
    6.1601    3.9061    0.0000 H   0  0  0  0  0  0  0  0  0  0  0  0
    4.9458    6.6432    0.0000 H   0  0  0  0  0  0  0  0  0  0  0  0
    5.8117    7.5100    0.0000 H   0  0  0  0  0  0  0  0  0  0  0  0
   10.6104    4.3393    0.0000 H   0  0  0  0  0  0  0  0  0  0  0  0
    9.6662    6.2389    0.0000 H   0  0  0  0  0  0  0  0  0  0  0  0
    8.8877    3.3475    0.0000 H   0  0  0  0  0  0  0  0  0  0  0  0
    6.3319    2.6601    0.0000 H   0  0  0  0  0  0  0  0  0  0  0  0
    8.2693    3.1048    0.0000 H   0  0  0  0  0  0  0  0  0  0  0  0
    5.5975    4.3548    0.0000 H   0  0  0  0  0  0  0  0  0  0  0  0
  1  2  1  0
  2  3  1  0
  3  4  1  0
  3  5  1  0
  5  6  1  0
  6  7  1  0
  7  8  1  0
  8  9  1  0
  9 10  1  0
 10 11  1  0
 11 12  2  0
 12 13  2  0
 13 14  1  0
 14 15  1  0
 15 16  1  0
 15 17  1  0
 17 18  1  0
 18 19  1  0
 19 20  1  0
 20 21  1  0
 21 22  1  0
 22 23  1  0
 23 24  1  0
 24 25  1  0
 25 26  1  0
 19 27  1  0
 27 28  1  0
 28 29  1  0
 29 30  1  0
 29 31  1  0
 31 32  1  0
 32 33  1  0
 33 34  1  0
 33 35  1  0
 35 36  1  0
 11 37  1  0
 37 38  1  0
 38 39  1  0
 39 40  1  0
 40 41  1  0
 41 42  1  0
 41 43  1  0
 10  7  1  0
 27 13  1  0
 36 29  1  0
 41 39  1  0
 37 10  1  0
 25 23  1  0
 36 31  1  0
 35 32  1  0
  1 44  1  0
  1 45  1  0
  1 46  1  0
  2 47  1  0
  2 48  1  0
  4 49  1  0
  5 50  1  0
  5 51  1  0
  6 52  1  0
  6 53  1  0
  7 54  1  0
  8 55  1  0
  8 56  1  0
  9 57  1  0
  9 58  1  0
 14 59  1  0
 15 60  1  0
 16 61  1  0
 16 62  1  0
 16 63  1  0
 17 64  1  0
 17 65  1  0
 18 66  1  0
 18 67  1  0
 19 68  1  0
 21 69  1  0
 21 70  1  0
 22 71  1  0
 22 72  1  0
 23 73  1  0
 24 74  1  0
 24 75  1  0
 25 76  1  0
 26 77  1  0
 26 78  1  0
 26 79  1  0
 27 80  1  0
 28 81  1  0
 28 82  1  0
 30 83  1  0
 30 84  1  0
 30 85  1  0
 31 86  1  0
 32 87  1  0
 33 88  1  0
 34 89  1  0
 36 90  1  0
 37 91  1  0
 38 92  1  0
 38 93  1  0
 39 94  1  0
 42 95  1  0
 42 96  1  0
 42 97  1  0
 43 98  1  0
 43 99  1  0
 43100  1  0
M  END
$$$$
