
     RDKit          3D

 34 40  0  0  0  0  0  0  0  0999 V2000
    6.6249  -31.9512  -11.1612 N   0  0  0  0  0  0  0  0  0  0  0  0
    7.8033  -32.9536  -11.1821 C   0  0  0  0  0  0  0  0  0  0  0  0
    6.6921  -30.6079  -10.4612 C   0  0  0  0  0  0  0  0  0  0  0  0
    7.9117  -29.7061  -10.7672 C   0  0  0  0  0  0  0  0  0  0  0  0
    6.7023  -28.0179  -12.4757 Br  0  0  0  0  0  0  0  0  0  0  0  0
    9.6273  -31.6420  -11.2282 C   0  0  0  0  0  0  0  0  0  0  0  0
    9.2340  -30.3910  -10.3284 C   0  0  0  0  0  0  0  0  0  0  0  0
    7.4542  -33.1128   -9.5430 Mg  0  0  0  0  0  2  0  0  0  0  0  0
    9.3910  -32.9552  -10.6039 C   0  0  0  0  0  0  0  0  0  0  0  0
    7.7275  -34.2199   -6.7769 O   0  0  0  0  0  0  0  0  0  0  0  0
    6.4966  -30.6821   -8.9367 C   0  0  0  0  0  0  0  0  0  0  0  0
   10.8954  -34.6034  -10.3460 O   0  0  0  0  0  0  0  0  0  0  0  0
   12.0537  -36.1392  -11.9306 C   0  0  0  0  0  0  0  0  0  0  0  0
    7.9644  -29.3354  -12.1420 O   0  0  0  0  0  0  0  0  0  0  0  0
    9.2137  -30.5696   -8.7706 C   0  0  0  0  0  0  0  0  0  0  0  0
    8.5126  -33.0460   -6.7609 C   0  0  0  0  0  0  0  0  0  0  0  0
   10.8385  -36.2213  -12.8939 C   0  0  0  0  0  0  0  0  0  0  0  0
   10.4958  -37.6448  -13.4623 C   0  0  0  0  0  0  0  0  0  0  0  0
   10.2939  -38.5495  -11.1189 O   0  0  0  0  0  0  0  0  0  0  0  0
   10.2589  -38.8274  -12.4945 C   0  0  0  0  0  0  0  0  0  0  0  0
   10.8860  -35.1406  -13.9999 C   0  0  0  0  0  0  0  0  0  0  0  0
    7.6647  -31.7839   -6.9058 C   0  0  0  0  0  0  0  0  0  0  0  0
    8.4383  -32.0913  -12.0264 C   0  0  0  0  0  0  0  0  0  0  0  0
    9.0355  -37.7993  -13.9407 C   0  0  0  0  0  0  0  0  0  0  0  0
    8.8175  -38.9933  -13.0267 C   0  0  0  0  0  0  0  0  0  0  0  0
    7.1706  -33.1162   -7.4349 C   0  0  0  0  0  0  0  0  0  0  0  0
   10.1545  -33.9676  -11.2436 O   0  0  0  0  0  0  0  0  0  0  0  0
   13.2289  -35.0748   -9.9650 C   0  0  0  0  0  0  0  0  0  0  0  0
   13.0374  -36.1920  -15.2307 C   0  0  0  0  0  0  0  0  0  0  0  0
   14.2976  -35.3807  -15.0774 C   0  0  0  0  0  0  0  0  0  0  0  0
   12.1212  -34.8644  -11.0095 C   0  0  0  0  0  0  0  0  0  0  0  0
    7.7976  -30.7302   -8.0487 C   0  0  0  0  0  0  0  0  0  0  0  0
   11.7177  -35.4092  -15.2934 C   0  0  0  0  0  0  0  0  0  0  0  0
   14.4062  -34.2869  -14.3379 C   0  0  0  0  0  0  0  0  0  0  0  0
  2  1  1  0
  3  1  1  0
  4  3  1  0
  7  4  1  0
  7  6  1  0
  9  2  1  0
  9  6  1  0
 11  3  1  0
 14  4  1  0
 14  5  1  0
 15  7  1  0
 16 10  1  0
 17 13  1  0
 18 17  1  0
 20 18  1  0
 20 19  1  0
 21 17  1  0
 22 16  1  0
 23  2  1  0
 23  6  1  0
 23  8  1  0
 24 18  1  0
 25 20  1  0
 25 24  1  0
 26  8  1  0
 26 10  1  0
 26 16  1  0
 26 22  1  0
 27  9  1  0
 27 12  1  0
 30 29  1  0
 31 12  1  0
 31 13  1  0
 31 28  1  0
 32 11  1  0
 32 15  1  0
 32 22  1  0
 33 21  1  0
 33 29  1  0
 34 30  2  0
M  END
$$$$
