
     RDKit          2D

 53 55  0  0  0  0  0  0  0  0999 V2000
    4.3399    1.8263    0.0000 C   0  0  0  0  0  0  0  0  0  0  0  0
    3.1499    0.9131    0.0000 C   0  0  0  0  0  0  0  0  0  0  0  0
    1.9598    0.0000    0.0000 C   0  0  0  0  0  0  0  0  0  0  0  0
    1.3858   -1.3858    0.0000 C   0  0  0  0  0  0  0  0  0  0  0  0
   -0.0000   -1.9598    0.0000 C   0  0  0  0  0  0  0  0  0  0  0  0
   -1.3858   -1.3858    0.0000 N   0  0  0  0  0  0  0  0  0  0  0  0
   -1.9598    0.0000    0.0000 C   0  0  0  0  0  0  0  0  0  0  0  0
   -3.1499   -0.9131    0.0000 C   0  0  0  0  0  0  0  0  0  0  0  0
   -2.8397   -1.7428    0.0000 F   0  0  0  0  0  0  0  0  0  0  0  0
   -4.5804   -1.3642    0.0000 C   0  0  0  0  0  0  0  0  0  0  0  0
   -4.2558    0.1002    0.0000 C   0  0  0  0  0  0  0  0  0  0  0  0
   -1.3858    1.3858    0.0000 C   0  0  0  0  0  0  0  0  0  0  0  0
   -2.7716    1.9598    0.0000 C   0  0  0  0  0  0  0  0  0  0  0  0
   -3.3457    3.3457    0.0000 C   0  0  0  0  0  0  0  0  0  0  0  0
   -2.7716    4.7315    0.0000 C   0  0  0  0  0  0  0  0  0  0  0  0
   -1.3858    5.3055    0.0000 C   0  0  0  0  0  0  0  0  0  0  0  0
   -0.0000    4.7315    0.0000 C   0  0  0  0  0  0  0  0  0  0  0  0
    1.4872    4.9273    0.0000 C   0  0  0  0  0  0  0  0  0  0  0  0
    0.5740    3.3457    0.0000 C   0  0  0  0  0  0  0  0  0  0  0  0
    0.0000    1.9598    0.0000 C   0  0  0  0  0  0  0  0  0  0  0  0
    1.3858    1.3858    0.0000 C   0  0  0  0  0  0  0  0  0  0  0  0
    5.5299    2.7394    0.0000 H   0  0  0  0  0  0  0  0  0  0  0  0
    5.2530    0.6363    0.0000 H   0  0  0  0  0  0  0  0  0  0  0  0
    3.4268    3.0163    0.0000 H   0  0  0  0  0  0  0  0  0  0  0  0
    2.5518    2.2888    0.0000 H   0  0  0  0  0  0  0  0  0  0  0  0
    4.0630   -0.2769    0.0000 H   0  0  0  0  0  0  0  0  0  0  0  0
    3.2523   -0.7613    0.0000 H   0  0  0  0  0  0  0  0  0  0  0  0
    2.8380   -1.7614    0.0000 H   0  0  0  0  0  0  0  0  0  0  0  0
    1.7614   -2.8380    0.0000 H   0  0  0  0  0  0  0  0  0  0  0  0
    0.7613   -3.2523    0.0000 H   0  0  0  0  0  0  0  0  0  0  0  0
   -0.9131   -3.1499    0.0000 H   0  0  0  0  0  0  0  0  0  0  0  0
   -1.8766   -2.0140    0.0000 H   0  0  0  0  0  0  0  0  0  0  0  0
   -3.1499    0.9131    0.0000 H   0  0  0  0  0  0  0  0  0  0  0  0
   -4.3847   -2.8514    0.0000 H   0  0  0  0  0  0  0  0  0  0  0  0
   -6.0790   -1.2988    0.0000 H   0  0  0  0  0  0  0  0  0  0  0  0
   -5.6416    0.6743    0.0000 H   0  0  0  0  0  0  0  0  0  0  0  0
   -3.7799    1.5228    0.0000 H   0  0  0  0  0  0  0  0  0  0  0  0
   -0.8118    0.0000    0.0000 H   0  0  0  0  0  0  0  0  0  0  0  0
   -4.2716    1.9468    0.0000 H   0  0  0  0  0  0  0  0  0  0  0  0
   -3.1472    0.5076    0.0000 H   0  0  0  0  0  0  0  0  0  0  0  0
   -4.8457    3.3457    0.0000 H   0  0  0  0  0  0  0  0  0  0  0  0
   -3.8323    5.7921    0.0000 H   0  0  0  0  0  0  0  0  0  0  0  0
   -0.6245    6.5980    0.0000 H   0  0  0  0  0  0  0  0  0  0  0  0
   -2.2990    6.4955    0.0000 H   0  0  0  0  0  0  0  0  0  0  0  0
    0.3756    6.1837    0.0000 H   0  0  0  0  0  0  0  0  0  0  0  0
    2.9743    5.1231    0.0000 H   0  0  0  0  0  0  0  0  0  0  0  0
    1.2914    6.4144    0.0000 H   0  0  0  0  0  0  0  0  0  0  0  0
    2.0370    3.5317    0.0000 H   0  0  0  0  0  0  0  0  0  0  0  0
    1.9496    2.7476    0.0000 H   0  0  0  0  0  0  0  0  0  0  0  0
    2.0123    3.7716    0.0000 H   0  0  0  0  0  0  0  0  0  0  0  0
   -0.5740    3.3457    0.0000 H   0  0  0  0  0  0  0  0  0  0  0  0
    1.9356    2.7814    0.0000 H   0  0  0  0  0  0  0  0  0  0  0  0
    2.7040    2.1017    0.0000 H   0  0  0  0  0  0  0  0  0  0  0  0
  1  2  1  0
  2  3  1  0
  3  4  1  0
  4  5  1  0
  5  6  1  0
  6  7  1  0
  7  8  1  0
  8  9  1  0
  8 10  1  0
 10 11  1  0
  7 12  1  0
 12 13  1  0
 13 14  1  0
 14 15  2  0
 15 16  1  0
 16 17  1  0
 17 18  1  0
 17 19  1  0
 19 20  1  0
 20 21  1  0
 21  3  1  0
 11  8  1  0
 20 12  1  0
  1 22  1  0
  1 23  1  0
  1 24  1  0
  2 25  1  0
  2 26  1  0
  3 27  1  6
  4 28  1  0
  4 29  1  0
  5 30  1  0
  5 31  1  0
  6 32  1  0
  7 33  1  1
 10 34  1  0
 10 35  1  0
 11 36  1  0
 11 37  1  0
 12 38  1  6
 13 39  1  0
 13 40  1  0
 14 41  1  0
 15 42  1  0
 16 43  1  0
 16 44  1  0
 17 45  1  6
 18 46  1  0
 18 47  1  0
 18 48  1  0
 19 49  1  0
 19 50  1  0
 20 51  1  6
 21 52  1  0
 21 53  1  0
M  END
$$$$
