
     RDKit          2D

 37 41  0  0  0  0  0  0  0  0999 V2000
   -9.1102    3.8725    0.0000 C   0  0  0  0  0  0  0  0  0  0  0  0
   -7.6218    3.6860    0.0000 C   0  0  0  0  0  0  0  0  0  0  0  0
   -6.1335    3.4995    0.0000 C   0  0  0  0  0  0  0  0  0  0  0  0
   -5.6913    4.9328    0.0000 C   0  0  0  0  0  0  0  0  0  0  0  0
   -4.6711    3.8332    0.0000 C   0  0  0  0  0  0  0  0  0  0  0  0
   -4.0884    2.4510    0.0000 C   0  0  0  0  0  0  0  0  0  0  0  0
   -2.6260    2.7848    0.0000 C   0  0  0  0  0  0  0  0  0  0  0  0
   -1.6058    1.6852    0.0000 C   0  0  0  0  0  0  0  0  0  0  0  0
   -0.4330    0.7500    0.0000 C   0  0  0  0  0  0  0  0  0  0  0  0
    0.8660    0.0000    0.0000 C   0  0  0  0  0  0  0  0  0  0  0  0
   -0.4330   -0.7500    0.0000 C   0  0  0  0  0  0  0  0  0  0  0  0
   -1.6058   -1.6852    0.0000 C   0  0  0  0  0  0  0  0  0  0  0  0
   -3.0682   -1.3515    0.0000 C   0  0  0  0  0  0  0  0  0  0  0  0
   -3.7190    0.0000    0.0000 C   0  0  0  0  0  0  0  0  0  0  0  0
   -3.0682    1.3515    0.0000 C   0  0  0  0  0  0  0  0  0  0  0  0
  -10.5985    4.0590    0.0000 H   0  0  0  0  0  0  0  0  0  0  0  0
   -8.9237    5.3609    0.0000 H   0  0  0  0  0  0  0  0  0  0  0  0
   -9.2967    2.3841    0.0000 H   0  0  0  0  0  0  0  0  0  0  0  0
   -7.6185    5.0360    0.0000 H   0  0  0  0  0  0  0  0  0  0  0  0
   -7.8083    2.1976    0.0000 H   0  0  0  0  0  0  0  0  0  0  0  0
   -6.2419    2.0034    0.0000 H   0  0  0  0  0  0  0  0  0  0  0  0
   -4.7856    6.1285    0.0000 H   0  0  0  0  0  0  0  0  0  0  0  0
   -6.8086    5.6906    0.0000 H   0  0  0  0  0  0  0  0  0  0  0  0
   -3.4110    4.6471    0.0000 H   0  0  0  0  0  0  0  0  0  0  0  0
   -5.3484    1.6372    0.0000 H   0  0  0  0  0  0  0  0  0  0  0  0
   -2.1839    4.2182    0.0000 H   0  0  0  0  0  0  0  0  0  0  0  0
   -0.5855    2.7848    0.0000 H   0  0  0  0  0  0  0  0  0  0  0  0
    0.4120    1.9894    0.0000 H   0  0  0  0  0  0  0  0  0  0  0  0
    1.8302    1.1491    0.0000 H   0  0  0  0  0  0  0  0  0  0  0  0
    1.8302   -1.1491    0.0000 H   0  0  0  0  0  0  0  0  0  0  0  0
    0.4120   -1.9894    0.0000 H   0  0  0  0  0  0  0  0  0  0  0  0
   -0.4330   -2.6205    0.0000 H   0  0  0  0  0  0  0  0  0  0  0  0
   -2.0870   -3.1059    0.0000 H   0  0  0  0  0  0  0  0  0  0  0  0
   -3.2510   -2.8403    0.0000 H   0  0  0  0  0  0  0  0  0  0  0  0
   -4.4790   -1.8610    0.0000 H   0  0  0  0  0  0  0  0  0  0  0  0
   -4.9970   -0.7853    0.0000 H   0  0  0  0  0  0  0  0  0  0  0  0
   -4.9970    0.7853    0.0000 H   0  0  0  0  0  0  0  0  0  0  0  0
  1  2  1  0
  2  3  1  0
  3  4  1  0
  4  5  1  0
  5  6  1  0
  6  7  1  0
  7  8  1  0
  8  9  1  0
  9 10  1  0
 10 11  1  0
 11 12  1  0
 12 13  1  0
 13 14  1  0
 14 15  1  0
  5  3  1  0
 15  6  1  0
 15  7  1  0
 15  8  1  0
 11  9  1  0
  1 16  1  0
  1 17  1  0
  1 18  1  0
  2 19  1  0
  2 20  1  0
  3 21  1  0
  4 22  1  0
  4 23  1  0
  5 24  1  0
  6 25  1  0
  7 26  1  0
  8 27  1  0
  9 28  1  0
 10 29  1  0
 10 30  1  0
 11 31  1  0
 12 32  1  0
 12 33  1  0
 13 34  1  0
 13 35  1  0
 14 36  1  0
 14 37  1  0
M  END
$$$$
