
     RDKit          2D

 53 57  0  0  0  0  0  0  0  0999 V2000
   -4.8646    1.5314    0.0000 C   0  0  0  0  0  0  0  0  0  0  0  0
   -3.3874    1.2709    0.0000 C   0  0  0  0  0  0  0  0  0  0  0  0
   -1.9102    1.0105    0.0000 C   0  0  0  0  0  0  0  0  0  0  0  0
   -0.4330    0.7500    0.0000 C   0  0  0  0  0  0  0  0  0  0  0  0
    0.8660    0.0000    0.0000 C   0  0  0  0  0  0  0  0  0  0  0  0
    1.8302    1.1491    0.0000 O   0  0  0  0  0  0  0  0  0  0  0  0
   -0.4330   -0.7500    0.0000 C   0  0  0  0  0  0  0  0  0  0  0  0
   -1.7321   -1.5000    0.0000 C   0  0  0  0  0  0  0  0  0  0  0  0
   -3.0311   -2.2500    0.0000 C   0  0  0  0  0  0  0  0  0  0  0  0
   -3.0311   -3.7500    0.0000 C   0  0  0  0  0  0  0  0  0  0  0  0
   -1.7321   -4.5000    0.0000 C   0  0  0  0  0  0  0  0  0  0  0  0
   -0.4330   -3.7500    0.0000 C   0  0  0  0  0  0  0  0  0  0  0  0
    1.0442   -3.4895    0.0000 C   0  0  0  0  0  0  0  0  0  0  0  0
   -0.4330   -2.2500    0.0000 C   0  0  0  0  0  0  0  0  0  0  0  0
   -3.1270    2.7482    0.0000 C   0  0  0  0  0  0  0  0  0  0  0  0
   -4.6042    3.0086    0.0000 C   0  0  0  0  0  0  0  0  0  0  0  0
   -6.0814    3.2691    0.0000 C   0  0  0  0  0  0  0  0  0  0  0  0
   -4.3437    4.4858    0.0000 C   0  0  0  0  0  0  0  0  0  0  0  0
   -2.8665    4.2254    0.0000 C   0  0  0  0  0  0  0  0  0  0  0  0
   -1.3722    4.3561    0.0000 C   0  0  0  0  0  0  0  0  0  0  0  0
   -2.2326    5.5848    0.0000 C   0  0  0  0  0  0  0  0  0  0  0  0
   -6.3626    1.6099    0.0000 H   0  0  0  0  0  0  0  0  0  0  0  0
   -5.1251    0.0542    0.0000 H   0  0  0  0  0  0  0  0  0  0  0  0
   -4.9203    2.3266    0.0000 H   0  0  0  0  0  0  0  0  0  0  0  0
   -3.8260   -0.1635    0.0000 H   0  0  0  0  0  0  0  0  0  0  0  0
   -2.1707   -0.4667    0.0000 H   0  0  0  0  0  0  0  0  0  0  0  0
   -1.3000    2.3808    0.0000 H   0  0  0  0  0  0  0  0  0  0  0  0
    0.0800    2.1595    0.0000 H   0  0  0  0  0  0  0  0  0  0  0  0
    1.8302   -1.1491    0.0000 H   0  0  0  0  0  0  0  0  0  0  0  0
    3.3074    0.8886    0.0000 H   0  0  0  0  0  0  0  0  0  0  0  0
   -0.6900   -2.5790    0.0000 H   0  0  0  0  0  0  0  0  0  0  0  0
   -4.5083   -2.5105    0.0000 H   0  0  0  0  0  0  0  0  0  0  0  0
   -3.7121   -0.9135    0.0000 H   0  0  0  0  0  0  0  0  0  0  0  0
   -3.5441   -5.1595    0.0000 H   0  0  0  0  0  0  0  0  0  0  0  0
   -4.5083   -3.4895    0.0000 H   0  0  0  0  0  0  0  0  0  0  0  0
   -0.7679   -5.6491    0.0000 H   0  0  0  0  0  0  0  0  0  0  0  0
   -2.6962   -5.6491    0.0000 H   0  0  0  0  0  0  0  0  0  0  0  0
    0.0800   -5.1595    0.0000 H   0  0  0  0  0  0  0  0  0  0  0  0
    2.5214   -3.2291    0.0000 H   0  0  0  0  0  0  0  0  0  0  0  0
    1.3047   -4.9667    0.0000 H   0  0  0  0  0  0  0  0  0  0  0  0
    0.9657   -1.9916    0.0000 H   0  0  0  0  0  0  0  0  0  0  0  0
    1.0558   -2.0672    0.0000 H   0  0  0  0  0  0  0  0  0  0  0  0
   -1.6498    2.4877    0.0000 H   0  0  0  0  0  0  0  0  0  0  0  0
   -5.2144    1.6383    0.0000 H   0  0  0  0  0  0  0  0  0  0  0  0
   -7.5586    3.5296    0.0000 H   0  0  0  0  0  0  0  0  0  0  0  0
   -6.0029    4.7670    0.0000 H   0  0  0  0  0  0  0  0  0  0  0  0
   -6.5200    1.8347    0.0000 H   0  0  0  0  0  0  0  0  0  0  0  0
   -4.2652    5.9838    0.0000 H   0  0  0  0  0  0  0  0  0  0  0  0
   -5.7781    4.9244    0.0000 H   0  0  0  0  0  0  0  0  0  0  0  0
   -0.6449    3.0442    0.0000 H   0  0  0  0  0  0  0  0  0  0  0  0
   -0.0127    4.9900    0.0000 H   0  0  0  0  0  0  0  0  0  0  0  0
   -1.1719    6.6455    0.0000 H   0  0  0  0  0  0  0  0  0  0  0  0
   -3.3473    6.5886    0.0000 H   0  0  0  0  0  0  0  0  0  0  0  0
  1  2  1  0
  2  3  1  0
  3  4  1  0
  4  5  1  0
  5  6  1  0
  5  7  1  0
  7  8  1  0
  8  9  1  0
  9 10  1  0
 10 11  1  0
 11 12  1  0
 12 13  1  0
 12 14  1  0
  2 15  1  0
 15 16  1  0
 16 17  1  0
 16 18  1  0
 18 19  1  0
 19 20  1  0
 20 21  1  0
  7  4  1  0
 14  8  1  0
 19 15  1  0
 14  7  1  0
 21 19  1  0
  1 22  1  0
  1 23  1  0
  1 24  1  0
  2 25  1  0
  3 26  1  0
  3 27  1  0
  4 28  1  0
  5 29  1  0
  6 30  1  0
  8 31  1  0
  9 32  1  0
  9 33  1  0
 10 34  1  0
 10 35  1  0
 11 36  1  0
 11 37  1  0
 12 38  1  0
 13 39  1  0
 13 40  1  0
 13 41  1  0
 14 42  1  0
 15 43  1  0
 16 44  1  0
 17 45  1  0
 17 46  1  0
 17 47  1  0
 18 48  1  0
 18 49  1  0
 20 50  1  0
 20 51  1  0
 21 52  1  0
 21 53  1  0
M  END
$$$$
