
     RDKit          2D

101109  0  0  0  0  0  0  0  0999 V2000
   -6.8641    3.9942    0.0000 C   0  0  0  0  0  0  0  0  0  0  0  0
   -7.1246    5.4714    0.0000 C   0  0  0  0  0  0  0  0  0  0  0  0
   -5.9755    6.4356    0.0000 C   0  0  0  0  0  0  0  0  0  0  0  0
   -4.8265    7.3998    0.0000 N   0  0  0  0  0  0  0  0  0  0  0  0
   -3.3322    7.2690    0.0000 C   0  0  0  0  0  0  0  0  0  0  0  0
   -5.7907    8.5488    0.0000 C   0  0  0  0  0  0  0  0  0  0  0  0
   -4.6416    9.5130    0.0000 C   0  0  0  0  0  0  0  0  0  0  0  0
   -3.2321    9.0000    0.0000 C   0  0  0  0  0  0  0  0  0  0  0  0
   -1.7321    9.0000    0.0000 C   0  0  0  0  0  0  0  0  0  0  0  0
   -0.2321    9.0000    0.0000 C   0  0  0  0  0  0  0  0  0  0  0  0
   -1.7321    7.5000    0.0000 C   0  0  0  0  0  0  0  0  0  0  0  0
   -1.7321    6.0000    0.0000 C   0  0  0  0  0  0  0  0  0  0  0  0
   -1.7321    4.5000    0.0000 C   0  0  0  0  0  0  0  0  0  0  0  0
   -1.7321    3.0000    0.0000 C   0  0  0  0  0  0  0  0  0  0  0  0
   -1.7321    1.5000    0.0000 C   0  0  0  0  0  0  0  0  0  0  0  0
   -1.7321    0.0000    0.0000 C   0  0  0  0  0  0  0  0  0  0  0  0
   -0.4330    0.7500    0.0000 C   0  0  0  0  0  0  0  0  0  0  0  0
    0.8660    0.0000    0.0000 C   0  0  0  0  0  0  0  0  0  0  0  0
    1.8302    1.1491    0.0000 C   0  0  0  0  0  0  0  0  0  0  0  0
    2.7944    2.2981    0.0000 C   0  0  0  0  0  0  0  0  0  0  0  0
   -0.4330   -0.7500    0.0000 C   0  0  0  0  0  0  0  0  0  0  0  0
   -3.0311    0.7500    0.0000 C   0  0  0  0  0  0  0  0  0  0  0  0
   -4.5311    0.7500    0.0000 C   0  0  0  0  0  0  0  0  0  0  0  0
   -4.7916    2.2272    0.0000 F   0  0  0  0  0  0  0  0  0  0  0  0
   -5.9406    0.2370    0.0000 N   0  0  0  0  0  0  0  0  0  0  0  0
   -4.7916   -0.7272    0.0000 C   0  0  0  0  0  0  0  0  0  0  0  0
   -5.5416   -2.0262    0.0000 C   0  0  0  0  0  0  0  0  0  0  0  0
   -0.2321    4.5000    0.0000 Sb  0  0  0  0  0  3  0  0  0  0  0  0
    0.5179    3.2010    0.0000 N   0  0  0  0  0  0  0  0  0  0  0  0
    0.5179    5.7990    0.0000 C   0  0  0  0  0  0  0  0  0  0  0  0
    1.2679    7.0981    0.0000 N   0  0  0  0  0  0  0  0  0  0  0  0
    2.7679    7.0981    0.0000 C   0  0  0  0  0  0  0  0  0  0  0  0
   -3.4925   10.4772    0.0000 N   0  0  0  0  0  0  0  0  0  0  0  0
   -4.9021   10.9902    0.0000 C   0  0  0  0  0  0  0  0  0  0  0  0
   -4.6416   12.4675    0.0000 N   0  0  0  0  0  0  0  0  0  0  0  0
   -6.4021   10.9902    0.0000 N   0  0  0  0  0  0  0  0  0  0  0  0
   -6.9397    7.5847    0.0000 N   0  0  0  0  0  0  0  0  0  0  0  0
   -8.4340    7.7154    0.0000 C   0  0  0  0  0  0  0  0  0  0  0  0
   -8.5647    6.2211    0.0000 C   0  0  0  0  0  0  0  0  0  0  0  0
   -8.6955    4.7268    0.0000 O   0  0  0  0  0  0  0  0  0  0  0  0
  -10.0549    4.0929    0.0000 C   0  0  0  0  0  0  0  0  0  0  0  0
   -8.3033    9.2097    0.0000 C   0  0  0  0  0  0  0  0  0  0  0  0
   -9.5320   10.0701    0.0000 C   0  0  0  0  0  0  0  0  0  0  0  0
   -6.9438    9.8436    0.0000 C   0  0  0  0  0  0  0  0  0  0  0  0
   -5.5844   10.4775    0.0000 C   0  0  0  0  0  0  0  0  0  0  0  0
   -8.0132    3.0300    0.0000 H   0  0  0  0  0  0  0  0  0  0  0  0
   -5.4546    3.4812    0.0000 H   0  0  0  0  0  0  0  0  0  0  0  0
   -8.0055    5.5640    0.0000 H   0  0  0  0  0  0  0  0  0  0  0  0
   -5.0114    5.2865    0.0000 H   0  0  0  0  0  0  0  0  0  0  0  0
   -2.2983    6.9130    0.0000 H   0  0  0  0  0  0  0  0  0  0  0  0
   -3.6441    5.8018    0.0000 H   0  0  0  0  0  0  0  0  0  0  0  0
   -3.0117    8.1996    0.0000 H   0  0  0  0  0  0  0  0  0  0  0  0
   -6.3862    9.4660    0.0000 H   0  0  0  0  0  0  0  0  0  0  0  0
   -3.3105    7.5021    0.0000 H   0  0  0  0  0  0  0  0  0  0  0  0
   -1.7321   10.5000    0.0000 H   0  0  0  0  0  0  0  0  0  0  0  0
    1.2679    9.0000    0.0000 H   0  0  0  0  0  0  0  0  0  0  0  0
   -0.2321   10.5000    0.0000 H   0  0  0  0  0  0  0  0  0  0  0  0
   -0.0492    7.5112    0.0000 H   0  0  0  0  0  0  0  0  0  0  0  0
   -0.2432    7.3172    0.0000 H   0  0  0  0  0  0  0  0  0  0  0  0
   -3.2209    7.6828    0.0000 H   0  0  0  0  0  0  0  0  0  0  0  0
   -3.2209    5.8172    0.0000 H   0  0  0  0  0  0  0  0  0  0  0  0
   -0.3317    6.5377    0.0000 H   0  0  0  0  0  0  0  0  0  0  0  0
   -3.2321    4.5000    0.0000 H   0  0  0  0  0  0  0  0  0  0  0  0
   -3.2321    3.0000    0.0000 H   0  0  0  0  0  0  0  0  0  0  0  0
   -0.2766    2.6370    0.0000 H   0  0  0  0  0  0  0  0  0  0  0  0
    1.8302   -1.1491    0.0000 H   0  0  0  0  0  0  0  0  0  0  0  0
    2.9793    0.1849    0.0000 H   0  0  0  0  0  0  0  0  0  0  0  0
    0.6811    2.1132    0.0000 H   0  0  0  0  0  0  0  0  0  0  0  0
    3.7586    3.4472    0.0000 H   0  0  0  0  0  0  0  0  0  0  0  0
    3.9435    1.3340    0.0000 H   0  0  0  0  0  0  0  0  0  0  0  0
    1.7714    3.3952    0.0000 H   0  0  0  0  0  0  0  0  0  0  0  0
   -7.4178    0.4974    0.0000 H   0  0  0  0  0  0  0  0  0  0  0  0
   -3.3820   -1.2402    0.0000 H   0  0  0  0  0  0  0  0  0  0  0  0
   -6.2916   -3.3253    0.0000 H   0  0  0  0  0  0  0  0  0  0  0  0
   -4.2425   -2.7762    0.0000 H   0  0  0  0  0  0  0  0  0  0  0  0
   -6.8406   -1.2762    0.0000 H   0  0  0  0  0  0  0  0  0  0  0  0
   -0.2321    1.9019    0.0000 H   0  0  0  0  0  0  0  0  0  0  0  0
    2.0068    3.3838    0.0000 H   0  0  0  0  0  0  0  0  0  0  0  0
   -0.6800    6.7018    0.0000 H   0  0  0  0  0  0  0  0  0  0  0  0
    1.8170    5.0490    0.0000 H   0  0  0  0  0  0  0  0  0  0  0  0
    0.5179    8.3971    0.0000 H   0  0  0  0  0  0  0  0  0  0  0  0
    4.2679    7.0981    0.0000 H   0  0  0  0  0  0  0  0  0  0  0  0
    2.7679    8.5981    0.0000 H   0  0  0  0  0  0  0  0  0  0  0  0
    2.7679    5.5981    0.0000 H   0  0  0  0  0  0  0  0  0  0  0  0
   -5.7907   13.4316    0.0000 H   0  0  0  0  0  0  0  0  0  0  0  0
   -3.2321   12.9805    0.0000 H   0  0  0  0  0  0  0  0  0  0  0  0
   -7.1521   12.2893    0.0000 H   0  0  0  0  0  0  0  0  0  0  0  0
   -6.9881    9.6095    0.0000 H   0  0  0  0  0  0  0  0  0  0  0  0
   -9.9283    7.8461    0.0000 H   0  0  0  0  0  0  0  0  0  0  0  0
  -10.0590    6.3518    0.0000 H   0  0  0  0  0  0  0  0  0  0  0  0
   -7.1465    5.7327    0.0000 H   0  0  0  0  0  0  0  0  0  0  0  0
  -11.4144    3.4590    0.0000 H   0  0  0  0  0  0  0  0  0  0  0  0
   -9.4210    2.7334    0.0000 H   0  0  0  0  0  0  0  0  0  0  0  0
  -10.6889    5.4524    0.0000 H   0  0  0  0  0  0  0  0  0  0  0  0
   -9.4013   11.5643    0.0000 H   0  0  0  0  0  0  0  0  0  0  0  0
  -10.8915    9.4361    0.0000 H   0  0  0  0  0  0  0  0  0  0  0  0
   -7.5777   11.2031    0.0000 H   0  0  0  0  0  0  0  0  0  0  0  0
   -5.9998    8.6780    0.0000 H   0  0  0  0  0  0  0  0  0  0  0  0
   -4.4187   11.4216    0.0000 H   0  0  0  0  0  0  0  0  0  0  0  0
   -6.5284   11.6432    0.0000 H   0  0  0  0  0  0  0  0  0  0  0  0
   -4.6403    9.3119    0.0000 H   0  0  0  0  0  0  0  0  0  0  0  0
  1  2  2  3
  2  3  1  0
  3  4  1  0
  4  5  1  0
  4  6  1  0
  6  7  1  0
  7  8  1  0
  8  9  1  0
  9 10  1  0
  9 11  1  0
 11 12  1  0
 12 13  1  0
 13 14  1  0
 15 14  1  1
 16 15  1  6
 16 17  1  0
 17 18  1  0
 18 19  1  0
 19 20  1  0
 18 21  1  0
 21 22  1  6
 22 23  1  1
 23 24  1  0
 23 25  1  0
 25 26  1  0
 26 27  1  0
 13 28  1  0
 28 29  1  0
 28 30  1  0
 30 31  1  0
 31 32  1  0
  8 33  1  0
 33 34  1  0
 34 35  1  0
 34 36  1  0
  6 37  1  0
 37 38  1  0
 38 39  1  0
 39 40  1  0
 40 41  1  0
 38 42  1  0
 42 43  2  3
 42 44  1  0
 44 45  1  0
 37  3  1  0
 33  7  1  0
  7 34  1  1
 17 15  1  6
 26 23  1  0
 22 15  1  0
 21 16  1  0
 22 16  1  0
 21 17  1  0
  1 46  1  0
  1 47  1  0
  2 48  1  0
  3 49  1  1
  5 50  1  0
  5 51  1  0
  5 52  1  0
  6 53  1  1
  8 54  1  1
  9 55  1  6
 10 56  1  0
 10 57  1  0
 10 58  1  0
 11 59  1  0
 11 60  1  0
 12 61  1  0
 12 62  1  0
 13 63  1  6
 14 64  1  0
 14 65  1  0
 18 66  1  6
 19 67  1  0
 19 68  1  0
 20 69  1  0
 20 70  1  0
 20 71  1  0
 25 72  1  0
 26 73  1  6
 27 74  1  0
 27 75  1  0
 27 76  1  0
 29 77  1  0
 29 78  1  0
 30 79  1  0
 30 80  1  0
 31 81  1  0
 32 82  1  0
 32 83  1  0
 32 84  1  0
 35 85  1  0
 35 86  1  0
 36 87  1  0
 36 88  1  0
 38 89  1  6
 39 90  1  0
 39 91  1  0
 41 92  1  0
 41 93  1  0
 41 94  1  0
 43 95  1  0
 43 96  1  0
 44 97  1  0
 44 98  1  0
 45 99  1  0
 45100  1  0
 45101  1  0
M  END
$$$$
