
     RDKit          2D

 66 75  0  0  0  0  0  0  0  0999 V2000
    2.2125   -5.1837    0.0000 C   0  0  0  0  0  0  0  0  0  0  0  0
    0.9506   -5.9947    0.0000 C   0  0  0  0  0  0  0  0  0  0  0  0
   -0.3113   -6.8056    0.0000 C   0  0  0  0  0  0  0  0  0  0  0  0
   -1.1223   -5.5438    0.0000 C   0  0  0  0  0  0  0  0  0  0  0  0
   -2.6223   -5.5438    0.0000 C   0  0  0  0  0  0  0  0  0  0  0  0
   -3.8841   -4.7328    0.0000 N   0  0  0  0  0  0  0  0  0  0  0  0
   -4.5073   -3.3684    0.0000 C   0  0  0  0  0  0  0  0  0  0  0  0
   -4.2938   -1.8836    0.0000 N   0  0  0  0  0  0  0  0  0  0  0  0
   -3.0311   -0.7500    0.0000 C   0  0  0  0  0  0  0  0  0  0  0  0
   -3.8630   -0.8706    0.0000 C   0  0  0  0  0  0  0  0  0  0  0  0
   -5.3394   -1.0271    0.0000 C   0  0  0  0  0  0  0  0  0  0  0  0
   -6.8157   -0.8706    0.0000 N   0  0  0  0  0  0  0  0  0  0  0  0
   -7.6476   -0.7500    0.0000 C   0  0  0  0  0  0  0  0  0  0  0  0
   -7.6476    0.7500    0.0000 C   0  0  0  0  0  0  0  0  0  0  0  0
   -8.9467   -0.0000    0.0000 C   0  0  0  0  0  0  0  0  0  0  0  0
   -6.4541    3.4307    0.0000 C   0  0  0  0  0  0  0  0  0  0  0  0
   -5.3394    2.4271    0.0000 C   0  0  0  0  0  0  0  0  0  0  0  0
   -3.9128    1.9635    0.0000 C   0  0  0  0  0  0  0  0  0  0  0  0
   -3.1856    3.2755    0.0000 Se  0  0  0  0  0  2  0  0  0  0  0  0
   -3.0311    0.7500    0.0000 C   0  0  0  0  0  0  0  0  0  0  0  0
   -1.7321    1.5000    0.0000 C   0  0  0  0  0  0  0  0  0  0  0  0
   -0.4330    0.7500    0.0000 C   0  0  0  0  0  0  0  0  0  0  0  0
    0.8660    0.0000    0.0000 N   0  0  0  0  0  0  0  0  0  0  0  0
   -0.4330   -0.7500    0.0000 C   0  0  0  0  0  0  0  0  0  0  0  0
   -1.7321   -1.5000    0.0000 C   0  0  0  0  0  0  0  0  0  0  0  0
    0.5493   -1.8836    0.0000 N   0  0  0  0  0  0  0  0  0  0  0  0
    0.7628   -3.3684    0.0000 C   0  0  0  0  0  0  0  0  0  0  0  0
    2.1553   -2.8109    0.0000 C   0  0  0  0  0  0  0  0  0  0  0  0
    1.6328   -4.5902    0.0000 C   0  0  0  0  0  0  0  0  0  0  0  0
    0.1396   -4.7328    0.0000 C   0  0  0  0  0  0  0  0  0  0  0  0
   -6.7659    1.9635    0.0000 C   0  0  0  0  0  0  0  0  0  0  0  0
    3.6331   -4.7022    0.0000 H   0  0  0  0  0  0  0  0  0  0  0  0
    3.0234   -6.4456    0.0000 H   0  0  0  0  0  0  0  0  0  0  0  0
    1.7310   -3.7631    0.0000 H   0  0  0  0  0  0  0  0  0  0  0  0
    1.7616   -7.2566    0.0000 H   0  0  0  0  0  0  0  0  0  0  0  0
   -0.6301   -8.2714    0.0000 H   0  0  0  0  0  0  0  0  0  0  0  0
   -1.4851   -6.4586    0.0000 H   0  0  0  0  0  0  0  0  0  0  0  0
   -2.4161   -6.5061    0.0000 H   0  0  0  0  0  0  0  0  0  0  0  0
   -3.8013   -6.4710    0.0000 H   0  0  0  0  0  0  0  0  0  0  0  0
   -5.5929   -4.4035    0.0000 H   0  0  0  0  0  0  0  0  0  0  0  0
   -5.9672   -3.0241    0.0000 H   0  0  0  0  0  0  0  0  0  0  0  0
   -5.0189   -1.5525    0.0000 H   0  0  0  0  0  0  0  0  0  0  0  0
   -3.3751   -3.3639    0.0000 H   0  0  0  0  0  0  0  0  0  0  0  0
   -2.5533   -2.5975    0.0000 H   0  0  0  0  0  0  0  0  0  0  0  0
   -6.2210   -3.6406    0.0000 H   0  0  0  0  0  0  0  0  0  0  0  0
   -4.9512   -3.8760    0.0000 H   0  0  0  0  0  0  0  0  0  0  0  0
   -7.6476   -3.1771    0.0000 H   0  0  0  0  0  0  0  0  0  0  0  0
   -8.6513   -1.8647    0.0000 H   0  0  0  0  0  0  0  0  0  0  0  0
   -8.7797    1.7341    0.0000 H   0  0  0  0  0  0  0  0  0  0  0  0
  -10.4467   -0.0000    0.0000 H   0  0  0  0  0  0  0  0  0  0  0  0
   -6.9176    4.8573    0.0000 H   0  0  0  0  0  0  0  0  0  0  0  0
   -4.5894    3.7261    0.0000 H   0  0  0  0  0  0  0  0  0  0  0  0
   -2.9004    2.2443    0.0000 H   0  0  0  0  0  0  0  0  0  0  0  0
   -0.7679    2.6491    0.0000 H   0  0  0  0  0  0  0  0  0  0  0  0
   -2.3895    2.8482    0.0000 H   0  0  0  0  0  0  0  0  0  0  0  0
    0.3170    2.0490    0.0000 H   0  0  0  0  0  0  0  0  0  0  0  0
    2.3660    0.0000    0.0000 H   0  0  0  0  0  0  0  0  0  0  0  0
   -2.5490   -2.7580    0.0000 H   0  0  0  0  0  0  0  0  0  0  0  0
   -0.7679   -2.6491    0.0000 H   0  0  0  0  0  0  0  0  0  0  0  0
    1.8276   -1.0988    0.0000 H   0  0  0  0  0  0  0  0  0  0  0  0
    3.5479   -2.2534    0.0000 H   0  0  0  0  0  0  0  0  0  0  0  0
    3.0332   -4.0271    0.0000 H   0  0  0  0  0  0  0  0  0  0  0  0
    1.7717   -1.3607    0.0000 H   0  0  0  0  0  0  0  0  0  0  0  0
    2.9872   -3.9455    0.0000 H   0  0  0  0  0  0  0  0  0  0  0  0
    2.0325   -6.0360    0.0000 H   0  0  0  0  0  0  0  0  0  0  0  0
   -8.0517    2.7361    0.0000 H   0  0  0  0  0  0  0  0  0  0  0  0
  1  2  1  0
  2  3  1  0
  3  4  1  0
  4  5  1  0
  5  6  1  0
  6  7  1  0
  7  8  1  0
  8  9  1  0
  9 10  1  0
 10 11  1  0
 11 12  1  0
 12 13  1  0
 13 14  1  0
 14 15  1  0
 15 16  1  0
 16 17  1  0
 17 18  1  0
 18 19  2  0
 18 20  1  0
 20 21  1  0
 21 22  1  0
 22 23  1  0
 23 24  1  0
 24 25  1  0
 24 26  1  0
 26 27  1  0
 27 28  1  0
 27 29  1  0
 29 30  1  0
 17 31  1  0
 30  2  1  0
  6  3  1  0
 20  9  1  0
 24 22  1  0
 30 27  1  0
 30  4  1  0
 25  9  1  0
 15 13  1  0
 31 16  1  0
 31 14  1  0
  1 32  1  0
  1 33  1  0
  1 34  1  0
  2 35  1  0
  3 36  1  0
  4 37  1  0
  5 38  1  0
  5 39  1  0
  7 40  1  0
  7 41  1  0
  8 42  1  0
 10 43  1  0
 10 44  1  0
 11 45  1  0
 11 46  1  0
 12 47  1  0
 13 48  1  0
 14 49  1  0
 15 50  1  0
 16 51  1  0
 17 52  1  0
 20 53  1  0
 21 54  1  0
 21 55  1  0
 22 56  1  0
 23 57  1  0
 25 58  1  0
 25 59  1  0
 26 60  1  0
 28 61  1  0
 28 62  1  0
 28 63  1  0
 29 64  1  0
 29 65  1  0
 31 66  1  0
M  END
$$$$
