
     RDKit          2D

110117  0  0  0  0  0  0  0  0999 V2000
    0.6105   15.7340    0.0000 C   0  0  0  0  0  0  0  0  0  0  0  0
    0.2283   14.2835    0.0000 C   0  0  0  0  0  0  0  0  0  0  0  0
   -0.1539   12.8330    0.0000 C   0  0  0  0  0  0  0  0  0  0  0  0
   -0.5361   11.3825    0.0000 C   0  0  0  0  0  0  0  0  0  0  0  0
   -0.9183    9.9320    0.0000 C   0  0  0  0  0  0  0  0  0  0  0  0
   -1.7735    8.6997    0.0000 C   0  0  0  0  0  0  0  0  0  0  0  0
   -1.1340    7.3429    0.0000 C   0  0  0  0  0  0  0  0  0  0  0  0
   -2.5812    6.9487    0.0000 C   0  0  0  0  0  0  0  0  0  0  0  0
   -4.0285    6.5544    0.0000 C   0  0  0  0  0  0  0  0  0  0  0  0
   -5.4757    6.1602    0.0000 C   0  0  0  0  0  0  0  0  0  0  0  0
   -3.6342    5.1072    0.0000 C   0  0  0  0  0  0  0  0  0  0  0  0
   -2.5096    4.1146    0.0000 C   0  0  0  0  0  0  0  0  0  0  0  0
   -2.2860    2.6314    0.0000 C   0  0  0  0  0  0  0  0  0  0  0  0
   -3.0682    1.3515    0.0000 C   0  0  0  0  0  0  0  0  0  0  0  0
   -1.6058    1.6852    0.0000 C   0  0  0  0  0  0  0  0  0  0  0  0
   -0.4330    0.7500    0.0000 C   0  0  0  0  0  0  0  0  0  0  0  0
    0.8660    0.0000    0.0000 C   0  0  0  0  0  0  0  0  0  0  0  0
   -0.4330   -0.7500    0.0000 C   0  0  0  0  0  0  0  0  0  0  0  0
   -1.6058   -1.6852    0.0000 C   0  0  0  0  0  0  0  0  0  0  0  0
   -3.0682   -1.3515    0.0000 C   0  0  0  0  0  0  0  0  0  0  0  0
   -3.7190    0.0000    0.0000 C   0  0  0  0  0  0  0  0  0  0  0  0
   -4.8917   -0.9352    0.0000 C   0  0  0  0  0  0  0  0  0  0  0  0
   -5.6739   -2.2152    0.0000 C   0  0  0  0  0  0  0  0  0  0  0  0
   -4.1743   -2.2526    0.0000 C   0  0  0  0  0  0  0  0  0  0  0  0
   -1.7321    0.0000    0.0000 C   0  0  0  0  0  0  0  0  0  0  0  0
   -4.4900    0.8737    0.0000 N   0  0  0  0  0  0  0  0  0  0  0  0
   -5.8864    1.4217    0.0000 C   0  0  0  0  0  0  0  0  0  0  0  0
   -6.0109   -0.0731    0.0000 C   0  0  0  0  0  0  0  0  0  0  0  0
   -6.6391   -1.4352    0.0000 C   0  0  0  0  0  0  0  0  0  0  0  0
   -7.5046   -0.2100    0.0000 C   0  0  0  0  0  0  0  0  0  0  0  0
   -8.8614   -0.8496    0.0000 C   0  0  0  0  0  0  0  0  0  0  0  0
  -10.2182   -1.4892    0.0000 C   0  0  0  0  0  0  0  0  0  0  0  0
  -11.5751   -2.1287    0.0000 C   0  0  0  0  0  0  0  0  0  0  0  0
  -10.9355   -3.4856    0.0000 O   0  0  0  0  0  0  0  0  0  0  0  0
  -12.9319   -2.7683    0.0000 C   0  0  0  0  0  0  0  0  0  0  0  0
  -13.9881   -3.8334    0.0000 O   0  0  0  0  0  0  0  0  0  0  0  0
  -12.5376   -4.2156    0.0000 C   0  0  0  0  0  0  0  0  0  0  0  0
  -12.6622   -5.7104    0.0000 O   0  0  0  0  0  0  0  0  0  0  0  0
   -6.6037    2.7391    0.0000 Se  0  0  0  0  0  2  0  0  0  0  0  0
   -6.3065    4.2093    0.0000 C   0  0  0  0  0  0  0  0  0  0  0  0
   -7.8003    4.0724    0.0000 C   0  0  0  0  0  0  0  0  0  0  0  0
   -5.1338    5.1446    0.0000 C   0  0  0  0  0  0  0  0  0  0  0  0
    0.3609    7.2184    0.0000 C   0  0  0  0  0  0  0  0  0  0  0  0
    1.2161    8.4507    0.0000 C   0  0  0  0  0  0  0  0  0  0  0  0
    0.5765    9.8075    0.0000 O   0  0  0  0  0  0  0  0  0  0  0  0
    0.9927   17.1845    0.0000 H   0  0  0  0  0  0  0  0  0  0  0  0
    2.0610   15.3518    0.0000 H   0  0  0  0  0  0  0  0  0  0  0  0
   -0.8399   16.1162    0.0000 H   0  0  0  0  0  0  0  0  0  0  0  0
    1.6788   13.9013    0.0000 H   0  0  0  0  0  0  0  0  0  0  0  0
   -1.2222   14.6657    0.0000 H   0  0  0  0  0  0  0  0  0  0  0  0
   -1.6044   13.2152    0.0000 H   0  0  0  0  0  0  0  0  0  0  0  0
    1.2966   12.4508    0.0000 H   0  0  0  0  0  0  0  0  0  0  0  0
    0.9144   11.0003    0.0000 H   0  0  0  0  0  0  0  0  0  0  0  0
   -1.9866   11.7647    0.0000 H   0  0  0  0  0  0  0  0  0  0  0  0
   -2.2804   10.5603    0.0000 H   0  0  0  0  0  0  0  0  0  0  0  0
   -2.8386    9.7560    0.0000 H   0  0  0  0  0  0  0  0  0  0  0  0
   -2.4758    8.3226    0.0000 H   0  0  0  0  0  0  0  0  0  0  0  0
   -1.0107    5.9986    0.0000 H   0  0  0  0  0  0  0  0  0  0  0  0
   -1.9218    5.7707    0.0000 H   0  0  0  0  0  0  0  0  0  0  0  0
   -2.8829    7.6865    0.0000 H   0  0  0  0  0  0  0  0  0  0  0  0
   -4.4227    8.0017    0.0000 H   0  0  0  0  0  0  0  0  0  0  0  0
   -6.9754    6.1279    0.0000 H   0  0  0  0  0  0  0  0  0  0  0  0
   -5.6906    7.6447    0.0000 H   0  0  0  0  0  0  0  0  0  0  0  0
   -6.0435    7.5486    0.0000 H   0  0  0  0  0  0  0  0  0  0  0  0
   -2.3608    5.8999    0.0000 H   0  0  0  0  0  0  0  0  0  0  0  0
   -1.5704    5.2842    0.0000 H   0  0  0  0  0  0  0  0  0  0  0  0
   -1.0098    4.0860    0.0000 H   0  0  0  0  0  0  0  0  0  0  0  0
   -0.9292    3.2710    0.0000 H   0  0  0  0  0  0  0  0  0  0  0  0
   -1.0438    1.7906    0.0000 H   0  0  0  0  0  0  0  0  0  0  0  0
   -1.9102    3.1540    0.0000 H   0  0  0  0  0  0  0  0  0  0  0  0
   -0.3278    2.4705    0.0000 H   0  0  0  0  0  0  0  0  0  0  0  0
    1.8302    1.1491    0.0000 H   0  0  0  0  0  0  0  0  0  0  0  0
    1.8302   -1.1491    0.0000 H   0  0  0  0  0  0  0  0  0  0  0  0
   -0.4330   -2.6205    0.0000 H   0  0  0  0  0  0  0  0  0  0  0  0
   -2.0870   -3.1059    0.0000 H   0  0  0  0  0  0  0  0  0  0  0  0
   -3.2510   -2.8403    0.0000 H   0  0  0  0  0  0  0  0  0  0  0  0
   -4.4063   -2.0292    0.0000 H   0  0  0  0  0  0  0  0  0  0  0  0
   -5.0832    0.6237    0.0000 H   0  0  0  0  0  0  0  0  0  0  0  0
   -6.2231   -0.2443    0.0000 H   0  0  0  0  0  0  0  0  0  0  0  0
   -7.1613   -2.0213    0.0000 H   0  0  0  0  0  0  0  0  0  0  0  0
   -5.9711   -3.6854    0.0000 H   0  0  0  0  0  0  0  0  0  0  0  0
   -3.9508   -3.7358    0.0000 H   0  0  0  0  0  0  0  0  0  0  0  0
   -2.7048   -1.9517    0.0000 H   0  0  0  0  0  0  0  0  0  0  0  0
   -3.0440   -0.7271    0.0000 H   0  0  0  0  0  0  0  0  0  0  0  0
   -2.9456    0.8816    0.0000 H   0  0  0  0  0  0  0  0  0  0  0  0
   -4.7099   -0.6101    0.0000 H   0  0  0  0  0  0  0  0  0  0  0  0
   -7.3809    1.2935    0.0000 H   0  0  0  0  0  0  0  0  0  0  0  0
   -4.7938   -0.9498    0.0000 H   0  0  0  0  0  0  0  0  0  0  0  0
   -5.6504   -2.5632    0.0000 H   0  0  0  0  0  0  0  0  0  0  0  0
   -7.5577   -2.6210    0.0000 H   0  0  0  0  0  0  0  0  0  0  0  0
   -8.0723    1.1784    0.0000 H   0  0  0  0  0  0  0  0  0  0  0  0
   -9.5010    0.5072    0.0000 H   0  0  0  0  0  0  0  0  0  0  0  0
   -8.3920   -2.2743    0.0000 H   0  0  0  0  0  0  0  0  0  0  0  0
  -10.8578   -0.1324    0.0000 H   0  0  0  0  0  0  0  0  0  0  0  0
   -9.5787   -2.8460    0.0000 H   0  0  0  0  0  0  0  0  0  0  0  0
  -12.2146   -0.7719    0.0000 H   0  0  0  0  0  0  0  0  0  0  0  0
  -11.7907   -4.7179    0.0000 H   0  0  0  0  0  0  0  0  0  0  0  0
  -13.7973   -1.5432    0.0000 H   0  0  0  0  0  0  0  0  0  0  0  0
  -11.0551   -4.4442    0.0000 H   0  0  0  0  0  0  0  0  0  0  0  0
  -14.0190   -6.3500    0.0000 H   0  0  0  0  0  0  0  0  0  0  0  0
   -7.1862    5.4243    0.0000 H   0  0  0  0  0  0  0  0  0  0  0  0
   -9.2940    3.9354    0.0000 H   0  0  0  0  0  0  0  0  0  0  0  0
   -7.9372    5.5661    0.0000 H   0  0  0  0  0  0  0  0  0  0  0  0
   -7.6633    2.5786    0.0000 H   0  0  0  0  0  0  0  0  0  0  0  0
   -6.3661    5.9998    0.0000 H   0  0  0  0  0  0  0  0  0  0  0  0
   -5.0267    6.6407    0.0000 H   0  0  0  0  0  0  0  0  0  0  0  0
   -0.0213    5.7679    0.0000 H   0  0  0  0  0  0  0  0  0  0  0  0
    1.7230    6.5901    0.0000 H   0  0  0  0  0  0  0  0  0  0  0  0
    2.2812    7.3944    0.0000 H   0  0  0  0  0  0  0  0  0  0  0  0
    2.4413    9.3162    0.0000 H   0  0  0  0  0  0  0  0  0  0  0  0
  1  2  1  0
  2  3  1  0
  3  4  1  0
  4  5  1  0
  5  6  1  0
  6  7  1  0
  7  8  1  0
  8  9  1  0
  9 10  1  0
  9 11  1  0
 11 12  1  0
 12 13  1  0
 13 14  1  0
 14 15  1  0
 15 16  1  0
 16 17  1  0
 17 18  1  0
 18 19  1  0
 19 20  1  0
 20 21  1  0
 21 22  1  0
 22 23  1  0
 23 24  1  0
 18 25  1  0
 14 26  1  0
 26 27  1  0
 27 28  1  0
 28 29  1  0
 29 30  1  0
 30 31  1  0
 31 32  1  0
 32 33  1  0
 33 34  1  0
 33 35  1  0
 35 36  1  0
 36 37  1  0
 37 38  1  0
 27 39  1  0
 39 40  1  0
 40 41  1  0
 40 42  1  0
  7 43  1  0
 43 44  1  0
 44 45  1  0
 45  5  1  0
 42 11  1  0
 21 14  1  0
 24 22  1  0
 30 28  1  0
 37 35  1  0
 18 16  1  0
 25 16  1  0
  1 46  1  0
  1 47  1  0
  1 48  1  0
  2 49  1  0
  2 50  1  0
  3 51  1  0
  3 52  1  0
  4 53  1  0
  4 54  1  0
  5 55  1  0
  6 56  1  0
  6 57  1  0
  7 58  1  0
  8 59  1  0
  8 60  1  0
  9 61  1  0
 10 62  1  0
 10 63  1  0
 10 64  1  0
 11 65  1  0
 12 66  1  0
 12 67  1  0
 13 68  1  0
 13 69  1  0
 15 70  1  0
 15 71  1  0
 17 72  1  0
 17 73  1  0
 19 74  1  0
 19 75  1  0
 20 76  1  0
 20 77  1  0
 21 78  1  0
 22 79  1  0
 23 80  1  0
 23 81  1  0
 24 82  1  0
 24 83  1  0
 25 84  1  0
 25 85  1  0
 26 86  1  0
 27 87  1  0
 28 88  1  0
 29 89  1  0
 29 90  1  0
 30 91  1  0
 31 92  1  0
 31 93  1  0
 32 94  1  0
 32 95  1  0
 33 96  1  0
 34 97  1  0
 35 98  1  0
 37 99  1  0
 38100  1  0
 40101  1  0
 41102  1  0
 41103  1  0
 41104  1  0
 42105  1  0
 42106  1  0
 43107  1  0
 43108  1  0
 44109  1  0
 44110  1  0
M  END
$$$$
