
     RDKit          2D

 22 25  0  0  0  0  0  0  0  0999 V2000
    4.5521    1.4915    0.0000 O   0  0  0  0  0  0  0  0  0  0  0  0
    3.0649    1.6873    0.0000 C   0  0  0  0  0  0  0  0  0  0  0  0
    2.3149    0.3882    0.0000 C   0  0  0  0  0  0  0  0  0  0  0  0
    0.8660    0.0000    0.0000 C   0  0  0  0  0  0  0  0  0  0  0  0
    0.8120    0.0312    0.0000 N   0  0  0  0  0  0  0  0  0  0  0  0
   -0.3790    0.7188    0.0000 C   0  0  0  0  0  0  0  0  0  0  0  0
   -0.4330    0.7500    0.0000 C   0  0  0  0  0  0  0  0  0  0  0  0
   -0.4330   -0.7500    0.0000 C   0  0  0  0  0  0  0  0  0  0  0  0
   -0.8212    2.1989    0.0000 N   0  0  0  0  0  0  0  0  0  0  0  0
   -0.0712    3.4979    0.0000 C   0  0  0  0  0  0  0  0  0  0  0  0
    1.3776    3.8862    0.0000 N   0  0  0  0  0  0  0  0  0  0  0  0
    2.6767    3.1362    0.0000 N   0  0  0  0  0  0  0  0  0  0  0  0
    3.7638   -0.0000    0.0000 H   0  0  0  0  0  0  0  0  0  0  0  0
    2.3149   -1.1118    0.0000 H   0  0  0  0  0  0  0  0  0  0  0  0
    0.5043   -2.7479    0.0000 H   0  0  0  0  0  0  0  0  0  0  0  0
   -2.4821    0.2010    0.0000 H   0  0  0  0  0  0  0  0  0  0  0  0
   -2.0858   -1.7470    0.0000 H   0  0  0  0  0  0  0  0  0  0  0  0
   -1.0191   -2.1308    0.0000 H   0  0  0  0  0  0  0  0  0  0  0  0
   -1.5201    3.8862    0.0000 H   0  0  0  0  0  0  0  0  0  0  0  0
   -0.0712    4.9979    0.0000 H   0  0  0  0  0  0  0  0  0  0  0  0
    1.5734    5.3733    0.0000 H   0  0  0  0  0  0  0  0  0  0  0  0
    3.8667    4.0493    0.0000 H   0  0  0  0  0  0  0  0  0  0  0  0
  1  2  2  0
  2  3  1  0
  3  4  1  0
  4  5  1  0
  5  6  1  0
  6  7  1  0
  7  8  1  0
  8  9  1  0
  9 10  1  0
 10 11  1  0
 11 12  1  0
 12  2  1  0
  7  4  1  0
  8  4  1  0
  9  7  1  0
  3 13  1  0
  3 14  1  0
  5 15  1  0
  6 16  1  0
  6 17  1  0
  8 18  1  0
 10 19  1  0
 10 20  1  0
 11 21  1  0
 12 22  1  0
M  END
$$$$
