
     RDKit          2D

 24 26  0  0  0  0  0  0  0  0999 V2000
   -0.0982    4.1491    0.0000 C   0  0  0  0  0  0  0  0  0  0  0  0
    0.8660    3.0000    0.0000 C   0  0  0  0  0  0  0  0  0  0  0  0
    2.1651    2.2500    0.0000 C   0  0  0  0  0  0  0  0  0  0  0  0
    2.1651    0.7500    0.0000 C   0  0  0  0  0  0  0  0  0  0  0  0
    0.8660    0.0000    0.0000 C   0  0  0  0  0  0  0  0  0  0  0  0
   -0.4330    0.7500    0.0000 C   0  0  0  0  0  0  0  0  0  0  0  0
   -0.4330    2.2500    0.0000 C   0  0  0  0  0  0  0  0  0  0  0  0
   -1.8596    1.7865    0.0000 C   0  0  0  0  0  0  0  0  0  0  0  0
   -1.8596    0.2865    0.0000 N   0  0  0  0  0  0  0  0  0  0  0  0
   -0.4330   -0.7500    0.0000 N   0  0  0  0  0  0  0  0  0  0  0  0
   -1.0623    5.2981    0.0000 H   0  0  0  0  0  0  0  0  0  0  0  0
    1.0509    5.1132    0.0000 H   0  0  0  0  0  0  0  0  0  0  0  0
   -0.9235    3.6131    0.0000 H   0  0  0  0  0  0  0  0  0  0  0  0
    1.8302    4.1491    0.0000 H   0  0  0  0  0  0  0  0  0  0  0  0
    2.6781    3.6595    0.0000 H   0  0  0  0  0  0  0  0  0  0  0  0
    3.6423    1.9895    0.0000 H   0  0  0  0  0  0  0  0  0  0  0  0
    3.6423    1.0105    0.0000 H   0  0  0  0  0  0  0  0  0  0  0  0
    2.6781   -0.6595    0.0000 H   0  0  0  0  0  0  0  0  0  0  0  0
    1.6160   -1.2990    0.0000 H   0  0  0  0  0  0  0  0  0  0  0  0
    1.0224    1.1130    0.0000 H   0  0  0  0  0  0  0  0  0  0  0  0
   -1.2853    2.7421    0.0000 H   0  0  0  0  0  0  0  0  0  0  0  0
   -2.3480    3.2047    0.0000 H   0  0  0  0  0  0  0  0  0  0  0  0
   -3.3514    1.6297    0.0000 H   0  0  0  0  0  0  0  0  0  0  0  0
   -3.0731   -0.5952    0.0000 H   0  0  0  0  0  0  0  0  0  0  0  0
  1  2  1  0
  2  3  1  0
  3  4  1  0
  4  5  1  0
  5  6  1  0
  6  7  1  0
  7  8  1  0
  8  9  1  0
  9 10  1  0
  7  2  1  0
 10  5  1  0
 10  6  1  0
  1 11  1  0
  1 12  1  0
  1 13  1  0
  2 14  1  0
  3 15  1  0
  3 16  1  0
  4 17  1  0
  4 18  1  0
  5 19  1  0
  6 20  1  0
  7 21  1  0
  8 22  1  0
  8 23  1  0
  9 24  1  0
M  END
$$$$
