
     RDKit          2D

 50 53  0  0  0  0  0  0  0  0999 V2000
    7.9169   -0.4923    0.0000 C   0  0  0  0  0  0  0  0  0  0  0  0
    6.4680   -0.1040    0.0000 C   0  0  0  0  0  0  0  0  0  0  0  0
    5.0191    0.2842    0.0000 C   0  0  0  0  0  0  0  0  0  0  0  0
    3.5702    0.6724    0.0000 C   0  0  0  0  0  0  0  0  0  0  0  0
    3.1820   -0.7765    0.0000 F   0  0  0  0  0  0  0  0  0  0  0  0
    2.1213    1.0607    0.0000 O   0  0  0  0  0  0  0  0  0  0  0  0
    1.0607    0.0000    0.0000 C   0  0  0  0  0  0  0  0  0  0  0  0
   -0.0000   -1.0607    0.0000 C   0  0  0  0  0  0  0  0  0  0  0  0
   -1.0607    0.0000    0.0000 C   0  0  0  0  0  0  0  0  0  0  0  0
    0.0000    1.0607    0.0000 C   0  0  0  0  0  0  0  0  0  0  0  0
   -1.0607    2.1213    0.0000 C   0  0  0  0  0  0  0  0  0  0  0  0
   -2.1213    1.0607    0.0000 C   0  0  0  0  0  0  0  0  0  0  0  0
   -3.1820    0.0000    0.0000 C   0  0  0  0  0  0  0  0  0  0  0  0
   -2.1213   -1.0607    0.0000 C   0  0  0  0  0  0  0  0  0  0  0  0
   -3.1820   -2.1213    0.0000 O   0  0  0  0  0  0  0  0  0  0  0  0
   -4.2426   -1.0607    0.0000 C   0  0  0  0  0  0  0  0  0  0  0  0
   -5.3033   -0.0000    0.0000 C   0  0  0  0  0  0  0  0  0  0  0  0
   -6.3640   -1.0607    0.0000 C   0  0  0  0  0  0  0  0  0  0  0  0
   -7.4246   -0.0000    0.0000 C   0  0  0  0  0  0  0  0  0  0  0  0
   -6.3640    1.0607    0.0000 C   0  0  0  0  0  0  0  0  0  0  0  0
   -5.3033    2.1213    0.0000 C   0  0  0  0  0  0  0  0  0  0  0  0
    9.3658   -0.8805    0.0000 H   0  0  0  0  0  0  0  0  0  0  0  0
    7.5286   -1.9411    0.0000 H   0  0  0  0  0  0  0  0  0  0  0  0
    8.3051    0.9566    0.0000 H   0  0  0  0  0  0  0  0  0  0  0  0
    6.0798   -1.5529    0.0000 H   0  0  0  0  0  0  0  0  0  0  0  0
    6.8562    1.3449    0.0000 H   0  0  0  0  0  0  0  0  0  0  0  0
    5.4073    1.7331    0.0000 H   0  0  0  0  0  0  0  0  0  0  0  0
    4.6309   -1.1647    0.0000 H   0  0  0  0  0  0  0  0  0  0  0  0
    3.9584    2.1213    0.0000 H   0  0  0  0  0  0  0  0  0  0  0  0
    2.1213   -1.0607    0.0000 H   0  0  0  0  0  0  0  0  0  0  0  0
    1.0607   -2.1213    0.0000 H   0  0  0  0  0  0  0  0  0  0  0  0
   -0.9235   -2.2427    0.0000 H   0  0  0  0  0  0  0  0  0  0  0  0
   -1.4712   -0.6833    0.0000 H   0  0  0  0  0  0  0  0  0  0  0  0
    1.0607    2.1213    0.0000 H   0  0  0  0  0  0  0  0  0  0  0  0
   -2.1213    3.1820    0.0000 H   0  0  0  0  0  0  0  0  0  0  0  0
   -0.0000    3.1820    0.0000 H   0  0  0  0  0  0  0  0  0  0  0  0
   -3.1820    2.1213    0.0000 H   0  0  0  0  0  0  0  0  0  0  0  0
   -4.2426    1.0607    0.0000 H   0  0  0  0  0  0  0  0  0  0  0  0
   -1.1979   -2.2427    0.0000 H   0  0  0  0  0  0  0  0  0  0  0  0
   -0.8355   -0.2882    0.0000 H   0  0  0  0  0  0  0  0  0  0  0  0
   -5.1661   -2.2427    0.0000 H   0  0  0  0  0  0  0  0  0  0  0  0
   -6.0758   -1.2858    0.0000 H   0  0  0  0  0  0  0  0  0  0  0  0
   -7.4246   -2.1213    0.0000 H   0  0  0  0  0  0  0  0  0  0  0  0
   -5.4405   -2.2427    0.0000 H   0  0  0  0  0  0  0  0  0  0  0  0
   -8.4853    1.0607    0.0000 H   0  0  0  0  0  0  0  0  0  0  0  0
   -8.4853   -1.0607    0.0000 H   0  0  0  0  0  0  0  0  0  0  0  0
   -7.4246    2.1213    0.0000 H   0  0  0  0  0  0  0  0  0  0  0  0
   -4.2426    3.1820    0.0000 H   0  0  0  0  0  0  0  0  0  0  0  0
   -6.2268    3.3034    0.0000 H   0  0  0  0  0  0  0  0  0  0  0  0
   -6.4853    3.0448    0.0000 H   0  0  0  0  0  0  0  0  0  0  0  0
  1  2  1  0
  2  3  1  0
  3  4  1  0
  4  5  1  0
  4  6  1  0
  6  7  1  0
  7  8  1  0
  8  9  1  0
  9 10  1  0
 10 11  1  0
 11 12  1  0
 12 13  1  0
 13 14  1  0
 14 15  1  0
 15 16  1  0
 16 17  1  0
 17 18  1  0
 18 19  1  0
 19 20  1  0
 20 21  1  0
 10  7  1  0
 16 13  1  0
 20 17  1  0
 12  9  1  0
  1 22  1  0
  1 23  1  0
  1 24  1  0
  2 25  1  0
  2 26  1  0
  3 27  1  0
  3 28  1  0
  4 29  1  0
  7 30  1  0
  8 31  1  0
  8 32  1  0
  9 33  1  0
 10 34  1  0
 11 35  1  0
 11 36  1  0
 12 37  1  0
 13 38  1  0
 14 39  1  0
 14 40  1  0
 16 41  1  0
 17 42  1  0
 18 43  1  0
 18 44  1  0
 19 45  1  0
 19 46  1  0
 20 47  1  0
 21 48  1  0
 21 49  1  0
 21 50  1  0
M  END
$$$$
