
     RDKit          2D

 98108  0  0  0  0  0  0  0  0999 V2000
    2.7661   -1.4468    0.0000 C   0  0  0  0  0  0  0  0  0  0  0  0
    1.8019   -0.2978    0.0000 C   0  0  0  0  0  0  0  0  0  0  0  0
    2.3149    1.1118    0.0000 C   0  0  0  0  0  0  0  0  0  0  0  0
    1.0159    1.8618    0.0000 C   0  0  0  0  0  0  0  0  0  0  0  0
    2.3149    2.6118    0.0000 C   0  0  0  0  0  0  0  0  0  0  0  0
    2.7031    4.0607    0.0000 C   0  0  0  0  0  0  0  0  0  0  0  0
    3.4531    2.7616    0.0000 C   0  0  0  0  0  0  0  0  0  0  0  0
    4.2031    1.4626    0.0000 C   0  0  0  0  0  0  0  0  0  0  0  0
    5.7031    1.4626    0.0000 C   0  0  0  0  0  0  0  0  0  0  0  0
    4.7522    3.5116    0.0000 C   0  0  0  0  0  0  0  0  0  0  0  0
    4.0022    4.8107    0.0000 C   0  0  0  0  0  0  0  0  0  0  0  0
    3.2522    6.1097    0.0000 N   0  0  0  0  0  0  0  0  0  0  0  0
    1.9531    5.3597    0.0000 C   0  0  0  0  0  0  0  0  0  0  0  0
    0.5043    5.7479    0.0000 C   0  0  0  0  0  0  0  0  0  0  0  0
   -0.5564    6.8086    0.0000 C   0  0  0  0  0  0  0  0  0  0  0  0
   -0.1682    8.2575    0.0000 C   0  0  0  0  0  0  0  0  0  0  0  0
   -0.7948    4.9979    0.0000 C   0  0  0  0  0  0  0  0  0  0  0  0
   -1.7079    3.8079    0.0000 O   0  0  0  0  0  0  0  0  0  0  0  0
   -2.2437    5.3862    0.0000 C   0  0  0  0  0  0  0  0  0  0  0  0
   -2.6319    3.9373    0.0000 C   0  0  0  0  0  0  0  0  0  0  0  0
   -1.1830    3.5490    0.0000 C   0  0  0  0  0  0  0  0  0  0  0  0
   -0.4330    2.2500    0.0000 C   0  0  0  0  0  0  0  0  0  0  0  0
   -0.4330    0.7500    0.0000 C   0  0  0  0  0  0  0  0  0  0  0  0
    0.8660    0.0000    0.0000 C   0  0  0  0  0  0  0  0  0  0  0  0
    1.6136    1.3858    0.0000 C   0  0  0  0  0  0  0  0  0  0  0  0
    1.0396    2.7716    0.0000 C   0  0  0  0  0  0  0  0  0  0  0  0
    1.3734    4.2340    0.0000 C   0  0  0  0  0  0  0  0  0  0  0  0
    0.4381    5.4068    0.0000 C   0  0  0  0  0  0  0  0  0  0  0  0
    0.8803    6.8401    0.0000 C   0  0  0  0  0  0  0  0  0  0  0  0
    0.0353    8.0795    0.0000 C   0  0  0  0  0  0  0  0  0  0  0  0
   -1.4605    8.1916    0.0000 C   0  0  0  0  0  0  0  0  0  0  0  0
   -2.4808    7.0920    0.0000 C   0  0  0  0  0  0  0  0  0  0  0  0
   -3.3258    8.3314    0.0000 C   0  0  0  0  0  0  0  0  0  0  0  0
   -2.5451    5.6303    0.0000 C   0  0  0  0  0  0  0  0  0  0  0  0
   -3.7179    6.5656    0.0000 C   0  0  0  0  0  0  0  0  0  0  0  0
   -5.1142    6.0176    0.0000 O   0  0  0  0  0  0  0  0  0  0  0  0
   -3.4943    8.0488    0.0000 O   0  0  0  0  0  0  0  0  0  0  0  0
   -1.0619    5.4068    0.0000 C   0  0  0  0  0  0  0  0  0  0  0  0
   -1.9971    4.2340    0.0000 C   0  0  0  0  0  0  0  0  0  0  0  0
   -1.7321    2.7716    0.0000 C   0  0  0  0  0  0  0  0  0  0  0  0
   -2.3061    1.3858    0.0000 O   0  0  0  0  0  0  0  0  0  0  0  0
   -1.7321    0.0000    0.0000 C   0  0  0  0  0  0  0  0  0  0  0  0
   -0.4330   -0.7500    0.0000 C   0  0  0  0  0  0  0  0  0  0  0  0
   -0.3462    3.3457    0.0000 C   0  0  0  0  0  0  0  0  0  0  0  0
   -1.2594    4.5357    0.0000 C   0  0  0  0  0  0  0  0  0  0  0  0
    2.2530   -2.8564    0.0000 H   0  0  0  0  0  0  0  0  0  0  0  0
    4.2433   -1.1864    0.0000 H   0  0  0  0  0  0  0  0  0  0  0  0
    0.6200   -1.2214    0.0000 H   0  0  0  0  0  0  0  0  0  0  0  0
    3.6006    0.3391    0.0000 H   0  0  0  0  0  0  0  0  0  0  0  0
    0.7942    0.3782    0.0000 H   0  0  0  0  0  0  0  0  0  0  0  0
    3.7105    2.0619    0.0000 H   0  0  0  0  0  0  0  0  0  0  0  0
    2.5093    1.5958    0.0000 H   0  0  0  0  0  0  0  0  0  0  0  0
    3.7898    0.0207    0.0000 H   0  0  0  0  0  0  0  0  0  0  0  0
    6.4531    0.1635    0.0000 H   0  0  0  0  0  0  0  0  0  0  0  0
    6.4531    2.7616    0.0000 H   0  0  0  0  0  0  0  0  0  0  0  0
    6.0512    4.2616    0.0000 H   0  0  0  0  0  0  0  0  0  0  0  0
    5.7942    2.4327    0.0000 H   0  0  0  0  0  0  0  0  0  0  0  0
    5.3012    5.5607    0.0000 H   0  0  0  0  0  0  0  0  0  0  0  0
    3.6404    7.5586    0.0000 H   0  0  0  0  0  0  0  0  0  0  0  0
    2.3034    6.8182    0.0000 H   0  0  0  0  0  0  0  0  0  0  0  0
    0.9176    7.1898    0.0000 H   0  0  0  0  0  0  0  0  0  0  0  0
   -2.0562    6.7825    0.0000 H   0  0  0  0  0  0  0  0  0  0  0  0
   -0.9407    9.5433    0.0000 H   0  0  0  0  0  0  0  0  0  0  0  0
    1.2226    8.8194    0.0000 H   0  0  0  0  0  0  0  0  0  0  0  0
   -3.1665    3.4576    0.0000 H   0  0  0  0  0  0  0  0  0  0  0  0
   -3.7354    5.2292    0.0000 H   0  0  0  0  0  0  0  0  0  0  0  0
   -1.8554    6.8350    0.0000 H   0  0  0  0  0  0  0  0  0  0  0  0
   -3.0201    2.4884    0.0000 H   0  0  0  0  0  0  0  0  0  0  0  0
   -4.1173    4.1460    0.0000 H   0  0  0  0  0  0  0  0  0  0  0  0
   -2.4620    2.7654    0.0000 H   0  0  0  0  0  0  0  0  0  0  0  0
   -1.9184    2.0413    0.0000 H   0  0  0  0  0  0  0  0  0  0  0  0
    2.2664   -0.5377    0.0000 H   0  0  0  0  0  0  0  0  0  0  0  0
    3.1122    1.4510    0.0000 H   0  0  0  0  0  0  0  0  0  0  0  0
    2.8036    0.4727    0.0000 H   0  0  0  0  0  0  0  0  0  0  0  0
    1.9630    3.9537    0.0000 H   0  0  0  0  0  0  0  0  0  0  0  0
    2.8683    4.1109    0.0000 H   0  0  0  0  0  0  0  0  0  0  0  0
    2.6668    4.9936    0.0000 H   0  0  0  0  0  0  0  0  0  0  0  0
    0.3781    6.9056    0.0000 H   0  0  0  0  0  0  0  0  0  0  0  0
    2.3794    6.7879    0.0000 H   0  0  0  0  0  0  0  0  0  0  0  0
    2.0270    7.8071    0.0000 H   0  0  0  0  0  0  0  0  0  0  0  0
    1.4316    8.6275    0.0000 H   0  0  0  0  0  0  0  0  0  0  0  0
   -0.0058    9.5789    0.0000 H   0  0  0  0  0  0  0  0  0  0  0  0
   -1.3784    9.6893    0.0000 H   0  0  0  0  0  0  0  0  0  0  0  0
   -2.6584    9.0943    0.0000 H   0  0  0  0  0  0  0  0  0  0  0  0
   -3.9807    7.0809    0.0000 H   0  0  0  0  0  0  0  0  0  0  0  0
   -4.0134    9.6645    0.0000 H   0  0  0  0  0  0  0  0  0  0  0  0
   -4.5651    7.4864    0.0000 H   0  0  0  0  0  0  0  0  0  0  0  0
   -2.3277    9.4511    0.0000 H   0  0  0  0  0  0  0  0  0  0  0  0
   -4.7723    8.8341    0.0000 H   0  0  0  0  0  0  0  0  0  0  0  0
   -1.1329    6.9051    0.0000 H   0  0  0  0  0  0  0  0  0  0  0  0
   -3.4937    4.3351    0.0000 H   0  0  0  0  0  0  0  0  0  0  0  0
   -3.2093    3.0319    0.0000 H   0  0  0  0  0  0  0  0  0  0  0  0
   -3.2321    0.0000    0.0000 H   0  0  0  0  0  0  0  0  0  0  0  0
   -0.4330   -2.2500    0.0000 H   0  0  0  0  0  0  0  0  0  0  0  0
    0.5669    4.5357    0.0000 H   0  0  0  0  0  0  0  0  0  0  0  0
   -2.3108    5.6055    0.0000 H   0  0  0  0  0  0  0  0  0  0  0  0
   -2.7388    4.2883    0.0000 H   0  0  0  0  0  0  0  0  0  0  0  0
   -0.0693    5.4488    0.0000 H   0  0  0  0  0  0  0  0  0  0  0  0
  1  2  2  3
  2  3  1  0
  3  4  1  0
  4  5  1  0
  5  6  1  0
  6  7  1  0
  7  8  1  0
  8  9  2  3
  7 10  1  0
 10 11  1  0
 11 12  1  0
 12 13  1  0
 13 14  1  0
 14 15  1  0
 15 16  2  3
 14 17  1  0
 17 18  1  0
 17 19  1  0
 19 20  1  0
 20 21  1  0
 21 22  1  0
 22 23  1  0
 23 24  1  0
 24 25  1  0
 25 26  1  0
 26 27  1  0
 27 28  1  0
 28 29  1  0
 29 30  1  0
 30 31  1  0
 31 32  1  0
 32 33  1  0
 32 34  1  0
 34 35  1  0
 35 36  2  0
 35 37  1  0
 34 38  1  0
 38 39  1  0
 39 40  1  0
 40 41  1  0
 41 42  1  0
 42 43  1  0
 40 44  1  0
 44 45  1  0
  5  3  1  0
 11  6  1  0
 21 17  1  0
 42 23  1  0
 22  4  1  0
 43 23  1  0
 13  6  1  0
 43 24  1  0
 44 26  1  0
 38 28  1  0
 39 34  1  0
  1 46  1  0
  1 47  1  0
  2 48  1  0
  3 49  1  0
  4 50  1  0
  5 51  1  0
  7 52  1  0
  8 53  1  0
  9 54  1  0
  9 55  1  0
 10 56  1  0
 10 57  1  0
 11 58  1  0
 12 59  1  0
 13 60  1  0
 14 61  1  0
 15 62  1  0
 16 63  1  0
 16 64  1  0
 18 65  1  0
 19 66  1  0
 19 67  1  0
 20 68  1  0
 20 69  1  0
 21 70  1  0
 22 71  1  0
 24 72  1  0
 25 73  1  0
 25 74  1  0
 26 75  1  0
 27 76  1  0
 27 77  1  0
 28 78  1  0
 29 79  1  0
 29 80  1  0
 30 81  1  0
 30 82  1  0
 31 83  1  0
 31 84  1  0
 32 85  1  0
 33 86  1  0
 33 87  1  0
 33 88  1  0
 37 89  1  0
 38 90  1  0
 39 91  1  0
 40 92  1  0
 42 93  1  0
 43 94  1  0
 44 95  1  0
 45 96  1  0
 45 97  1  0
 45 98  1  0
M  END
$$$$
