
     RDKit          3D

 42 45  0  0  0  0  0  0  0  0999 V2000
   22.0132  -27.3651  -22.7869 Se  0  0  0  0  0  2  0  0  0  0  0  0
   21.7488  -17.7663  -30.3424 O   0  0  0  0  0  0  0  0  0  0  0  0
   19.1739  -15.6491  -26.1857 O   0  0  0  0  0  0  0  0  0  0  0  0
   23.8293  -22.4767  -25.4833 O   0  0  0  0  0  0  0  0  0  0  0  0
   23.2254  -21.5304  -27.7215 O   0  0  0  0  0  0  0  0  0  0  0  0
   16.3864  -16.4296  -10.0145 O   0  0  0  0  0  0  0  0  0  0  0  0
   23.0005  -20.5395  -23.8886 S   0  0  0  0  0  4  0  0  0  0  0  0
   23.6856  -25.0134  -24.2336 C   0  0  0  0  0  0  0  0  0  0  0  0
   15.3460  -16.1920   -9.0066 C   0  0  0  0  0  0  0  0  0  0  0  0
   17.3976  -14.2088  -27.3061 C   0  0  0  0  0  0  0  0  0  0  0  0
   15.7330  -13.8804  -26.7617 Cl  0  0  0  0  0  0  0  0  0  0  0  0
   22.7262  -26.2488  -24.2360 C   0  0  0  0  0  0  0  0  0  0  0  0
   18.1193  -16.7493  -28.2318 C   0  0  0  0  0  0  0  0  0  0  0  0
   23.5537  -24.0149  -25.5823 C   0  0  0  0  0  0  0  0  0  0  0  0
   23.0690  -17.5715  -28.2189 C   0  0  0  0  0  0  0  0  0  0  0  0
   24.5204  -24.6807  -22.8087 C   0  0  0  0  0  0  0  0  0  0  0  0
   24.8744  -21.5604  -26.0781 C   0  0  0  0  0  0  0  0  0  0  0  0
   20.1454  -26.9923  -23.4936 C   0  0  0  0  0  0  0  0  0  0  0  0
   23.8223  -19.2238  -28.3207 C   0  0  0  0  0  0  0  0  0  0  0  0
   24.2856  -20.6669  -27.4550 C   0  0  0  0  0  0  0  0  0  0  0  0
   26.1972  -23.8623  -25.6381 C   0  0  0  0  0  0  0  0  0  0  0  0
   20.6496  -15.9039  -29.0328 C   0  0  0  0  0  0  0  0  0  0  0  0
   25.0243  -25.9295  -22.1068 C   0  0  0  0  0  0  0  0  0  0  0  0
   26.0023  -24.9857  -22.6820 C   0  0  0  0  0  0  0  0  0  0  0  0
   26.2472  -22.3935  -26.3721 C   0  0  0  0  0  0  0  0  0  0  0  0
   27.9697  -23.5351  -27.8808 C   0  0  0  0  0  0  0  0  0  0  0  0
   20.8105  -14.4838  -29.6293 C   0  0  0  0  0  0  0  0  0  0  0  0
   23.0005  -17.1573  -26.7799 C   0  0  0  0  0  0  0  0  0  0  0  0
   28.4383  -25.9572  -28.7373 C   0  0  0  0  0  0  0  0  0  0  0  0
   21.9698  -16.8375  -29.2650 C   0  0  0  0  0  0  0  0  0  0  0  0
   28.5745  -27.3113  -28.1382 N   0  0  0  0  0  0  0  0  0  0  0  0
   17.8972  -18.3071  -28.0622 C   0  0  0  0  0  0  0  0  0  0  0  0
   27.6870  -25.0774  -27.7985 N   0  0  0  0  0  0  0  0  0  0  0  0
   18.9323  -19.1996  -27.4275 C   0  0  0  0  0  0  0  0  0  0  0  0
   26.6606  -22.5764  -27.7527 C   0  0  0  0  0  0  0  0  0  0  0  0
   20.3692  -18.9902  -27.8075 C   0  0  0  0  0  0  0  0  0  0  0  0
   17.8002  -16.2060  -29.6204 C   0  0  0  0  0  0  0  0  0  0  0  0
   21.2963  -19.5478  -26.9027 O   0  0  0  0  0  0  0  0  0  0  0  0
   30.0400  -25.4869  -29.0847 C   0  0  0  0  0  0  0  0  0  0  0  0
   19.2486  -16.6422  -29.3624 C   0  0  0  0  0  0  0  0  0  0  0  0
   17.9765  -15.6958  -27.0453 C   0  0  0  0  0  0  0  0  0  0  0  0
   20.0063  -27.3607  -24.9953 C   0  0  0  0  0  0  0  0  0  0  0  0
  8  7  1  0
  9  6  1  0
  9  7  1  0
 11 10  1  0
 12  1  1  0
 12  7  1  0
 12  8  1  0
 14  4  1  0
 14  8  1  0
 16  8  1  0
 17  4  1  0
 18  1  1  0
 19 15  1  0
 20  5  1  0
 20 17  1  0
 20 19  1  0
 23  7  1  0
 23 16  1  0
 24 16  1  0
 24 23  1  0
 25 17  1  0
 25 21  1  0
 27 22  1  0
 28 15  1  0
 30  2  1  0
 30 15  1  0
 30 22  1  0
 31 29  1  0
 32 13  1  0
 33 26  1  0
 33 29  1  0
 34 32  1  0
 35 25  1  0
 35 26  1  0
 36 34  1  0
 37 13  1  0
 38 36  1  0
 39 29  1  0
 40 13  1  0
 40 22  1  0
 40 37  1  0
 41  3  1  0
 41 10  1  0
 41 13  1  0
 42 18  1  0
M  END
$$$$
