
     RDKit          2D

108113  0  0  0  0  0  0  0  0999 V2000
    4.2716    2.0377    0.0000 C   0  0  0  0  0  0  0  0  0  0  0  0
    2.7944    2.2981    0.0000 C   0  0  0  0  0  0  0  0  0  0  0  0
    1.8302    1.1491    0.0000 C   0  0  0  0  0  0  0  0  0  0  0  0
    0.6811    2.1132    0.0000 O   0  0  0  0  0  0  0  0  0  0  0  0
    0.8660    0.0000    0.0000 C   0  0  0  0  0  0  0  0  0  0  0  0
   -0.4330    0.7500    0.0000 C   0  0  0  0  0  0  0  0  0  0  0  0
   -0.4330    2.2500    0.0000 C   0  0  0  0  0  0  0  0  0  0  0  0
   -1.7321    0.0000    0.0000 N   0  0  0  0  0  0  0  0  0  0  0  0
   -2.8468   -1.0037    0.0000 C   0  0  0  0  0  0  0  0  0  0  0  0
   -2.2367   -2.3740    0.0000 C   0  0  0  0  0  0  0  0  0  0  0  0
   -0.7449   -2.2172    0.0000 C   0  0  0  0  0  0  0  0  0  0  0  0
   -0.7449   -3.7172    0.0000 C   0  0  0  0  0  0  0  0  0  0  0  0
    0.7551   -3.7172    0.0000 C   0  0  0  0  0  0  0  0  0  0  0  0
    2.2551   -3.7172    0.0000 N   0  0  0  0  0  0  0  0  0  0  0  0
    3.0051   -5.0163    0.0000 N   0  0  0  0  0  0  0  0  0  0  0  0
    4.5051   -5.0163    0.0000 C   0  0  0  0  0  0  0  0  0  0  0  0
    4.5051   -3.5163    0.0000 C   0  0  0  0  0  0  0  0  0  0  0  0
    4.5051   -2.0163    0.0000 C   0  0  0  0  0  0  0  0  0  0  0  0
    4.5051   -0.5163    0.0000 C   0  0  0  0  0  0  0  0  0  0  0  0
    4.5051   -6.5163    0.0000 C   0  0  0  0  0  0  0  0  0  0  0  0
    4.5051   -8.0163    0.0000 C   0  0  0  0  0  0  0  0  0  0  0  0
    6.0051   -6.5163    0.0000 Si  0  0  0  0  0  4  0  0  0  0  0  0
    7.5051   -6.5163    0.0000 C   0  0  0  0  0  0  0  0  0  0  0  0
    7.5051   -8.0163    0.0000 O   0  0  0  0  0  0  0  0  0  0  0  0
    7.5051   -5.0163    0.0000 C   0  0  0  0  0  0  0  0  0  0  0  0
    8.9823   -4.7558    0.0000 C   0  0  0  0  0  0  0  0  0  0  0  0
   10.3731   -4.1939    0.0000 C   0  0  0  0  0  0  0  0  0  0  0  0
   11.3373   -5.3429    0.0000 C   0  0  0  0  0  0  0  0  0  0  0  0
   10.5424   -6.6150    0.0000 C   0  0  0  0  0  0  0  0  0  0  0  0
   11.8906   -7.2726    0.0000 C   0  0  0  0  0  0  0  0  0  0  0  0
    9.0870   -6.2521    0.0000 C   0  0  0  0  0  0  0  0  0  0  0  0
    6.9921   -3.6067    0.0000 C   0  0  0  0  0  0  0  0  0  0  0  0
    6.0279   -4.7558    0.0000 C   0  0  0  0  0  0  0  0  0  0  0  0
    5.5149   -6.1653    0.0000 C   0  0  0  0  0  0  0  0  0  0  0  0
    4.7289   -4.0058    0.0000 C   0  0  0  0  0  0  0  0  0  0  0  0
    3.4298   -4.7558    0.0000 C   0  0  0  0  0  0  0  0  0  0  0  0
    0.7551   -5.2172    0.0000 C   0  0  0  0  0  0  0  0  0  0  0  0
   -0.7449   -5.2172    0.0000 C   0  0  0  0  0  0  0  0  0  0  0  0
   -2.2449   -5.2172    0.0000 C   0  0  0  0  0  0  0  0  0  0  0  0
   -2.2449   -6.7172    0.0000 O   0  0  0  0  0  0  0  0  0  0  0  0
   -3.7449   -5.2172    0.0000 C   0  0  0  0  0  0  0  0  0  0  0  0
   -5.2449   -5.2172    0.0000 C   0  0  0  0  0  0  0  0  0  0  0  0
   -3.7449   -6.7172    0.0000 N   0  0  0  0  0  0  0  0  0  0  0  0
   -0.4330   -0.7500    0.0000 C   0  0  0  0  0  0  0  0  0  0  0  0
    5.2358    3.1867    0.0000 H   0  0  0  0  0  0  0  0  0  0  0  0
    4.9526    0.7012    0.0000 H   0  0  0  0  0  0  0  0  0  0  0  0
    2.2814    3.7077    0.0000 H   0  0  0  0  0  0  0  0  0  0  0  0
    2.8532    0.0520    0.0000 H   0  0  0  0  0  0  0  0  0  0  0  0
    0.9416    3.5905    0.0000 H   0  0  0  0  0  0  0  0  0  0  0  0
    1.8302   -1.1491    0.0000 H   0  0  0  0  0  0  0  0  0  0  0  0
   -0.4330    3.7500    0.0000 H   0  0  0  0  0  0  0  0  0  0  0  0
   -1.9330    2.2500    0.0000 H   0  0  0  0  0  0  0  0  0  0  0  0
    1.0224    2.6130    0.0000 H   0  0  0  0  0  0  0  0  0  0  0  0
   -3.7284    0.2098    0.0000 H   0  0  0  0  0  0  0  0  0  0  0  0
   -4.1458   -1.7537    0.0000 H   0  0  0  0  0  0  0  0  0  0  0  0
   -3.7091   -2.6602    0.0000 H   0  0  0  0  0  0  0  0  0  0  0  0
   -2.1060   -3.8683    0.0000 H   0  0  0  0  0  0  0  0  0  0  0  0
    0.7549   -2.1910    0.0000 H   0  0  0  0  0  0  0  0  0  0  0  0
    0.7105   -3.3543    0.0000 H   0  0  0  0  0  0  0  0  0  0  0  0
    0.9380   -2.2284    0.0000 H   0  0  0  0  0  0  0  0  0  0  0  0
    2.8412   -2.3364    0.0000 H   0  0  0  0  0  0  0  0  0  0  0  0
    2.1024   -6.2142    0.0000 H   0  0  0  0  0  0  0  0  0  0  0  0
    5.9054   -4.4786    0.0000 H   0  0  0  0  0  0  0  0  0  0  0  0
    6.0051   -3.5163    0.0000 H   0  0  0  0  0  0  0  0  0  0  0  0
    3.0497   -3.1533    0.0000 H   0  0  0  0  0  0  0  0  0  0  0  0
    5.9939   -1.8334    0.0000 H   0  0  0  0  0  0  0  0  0  0  0  0
    3.0163   -1.8334    0.0000 H   0  0  0  0  0  0  0  0  0  0  0  0
    4.6880    0.9726    0.0000 H   0  0  0  0  0  0  0  0  0  0  0  0
    6.0051   -0.5163    0.0000 H   0  0  0  0  0  0  0  0  0  0  0  0
    3.0163   -0.6991    0.0000 H   0  0  0  0  0  0  0  0  0  0  0  0
    3.0497   -6.8792    0.0000 H   0  0  0  0  0  0  0  0  0  0  0  0
    4.5051   -9.5163    0.0000 H   0  0  0  0  0  0  0  0  0  0  0  0
    3.0051   -8.0163    0.0000 H   0  0  0  0  0  0  0  0  0  0  0  0
    5.9939   -8.1991    0.0000 H   0  0  0  0  0  0  0  0  0  0  0  0
    6.1880   -8.0051    0.0000 H   0  0  0  0  0  0  0  0  0  0  0  0
    5.8223   -5.0274    0.0000 H   0  0  0  0  0  0  0  0  0  0  0  0
    8.9605   -6.8792    0.0000 H   0  0  0  0  0  0  0  0  0  0  0  0
    8.8042   -8.7663    0.0000 H   0  0  0  0  0  0  0  0  0  0  0  0
    8.7477   -3.2742    0.0000 H   0  0  0  0  0  0  0  0  0  0  0  0
    9.6689   -2.8695    0.0000 H   0  0  0  0  0  0  0  0  0  0  0  0
   11.6167   -3.3551    0.0000 H   0  0  0  0  0  0  0  0  0  0  0  0
   12.3793   -4.2639    0.0000 H   0  0  0  0  0  0  0  0  0  0  0  0
   12.5193   -6.2664    0.0000 H   0  0  0  0  0  0  0  0  0  0  0  0
   10.0294   -8.0246    0.0000 H   0  0  0  0  0  0  0  0  0  0  0  0
   13.2388   -7.9301    0.0000 H   0  0  0  0  0  0  0  0  0  0  0  0
   11.0736   -8.5306    0.0000 H   0  0  0  0  0  0  0  0  0  0  0  0
   11.4023   -8.6909    0.0000 H   0  0  0  0  0  0  0  0  0  0  0  0
    8.8782   -7.7375    0.0000 H   0  0  0  0  0  0  0  0  0  0  0  0
    7.6687   -6.7406    0.0000 H   0  0  0  0  0  0  0  0  0  0  0  0
    8.1900   -2.7040    0.0000 H   0  0  0  0  0  0  0  0  0  0  0  0
    6.1752   -2.3487    0.0000 H   0  0  0  0  0  0  0  0  0  0  0  0
    5.3582   -7.6571    0.0000 H   0  0  0  0  0  0  0  0  0  0  0  0
    4.1784   -5.4843    0.0000 H   0  0  0  0  0  0  0  0  0  0  0  0
    6.6469   -7.1495    0.0000 H   0  0  0  0  0  0  0  0  0  0  0  0
    5.0918   -2.5504    0.0000 H   0  0  0  0  0  0  0  0  0  0  0  0
    2.3509   -3.7137    0.0000 H   0  0  0  0  0  0  0  0  0  0  0  0
    3.0669   -6.2112    0.0000 H   0  0  0  0  0  0  0  0  0  0  0  0
    0.7551   -6.7172    0.0000 H   0  0  0  0  0  0  0  0  0  0  0  0
    2.2105   -5.5802    0.0000 H   0  0  0  0  0  0  0  0  0  0  0  0
   -0.7449   -6.7172    0.0000 H   0  0  0  0  0  0  0  0  0  0  0  0
   -2.4277   -3.7284    0.0000 H   0  0  0  0  0  0  0  0  0  0  0  0
   -3.3238   -7.7593    0.0000 H   0  0  0  0  0  0  0  0  0  0  0  0
   -3.9277   -3.7284    0.0000 H   0  0  0  0  0  0  0  0  0  0  0  0
   -6.7449   -5.2172    0.0000 H   0  0  0  0  0  0  0  0  0  0  0  0
   -5.2449   -3.7172    0.0000 H   0  0  0  0  0  0  0  0  0  0  0  0
   -5.4277   -6.7060    0.0000 H   0  0  0  0  0  0  0  0  0  0  0  0
   -4.9428   -7.6200    0.0000 H   0  0  0  0  0  0  0  0  0  0  0  0
   -2.6659   -7.7593    0.0000 H   0  0  0  0  0  0  0  0  0  0  0  0
  1  2  2  3
  2  3  1  0
  3  4  1  0
  3  5  1  0
  5  6  1  0
  6  7  1  0
  6  8  1  0
  8  9  1  0
  9 10  1  0
 10 11  1  0
 11 12  1  0
 12 13  1  0
 13 14  1  0
 14 15  1  0
 15 16  1  0
 16 17  1  0
 17 18  1  0
 18 19  1  0
 16 20  1  0
 20 21  1  0
 20 22  1  0
 22 23  1  0
 23 24  1  0
 23 25  1  0
 25 26  1  0
 26 27  1  0
 27 28  1  0
 28 29  1  0
 29 30  1  0
 29 31  1  0
 25 32  1  0
 32 33  1  0
 33 34  1  0
 33 35  1  0
 35 36  2  3
 13 37  1  0
 37 38  1  0
 38 39  1  0
 39 40  1  0
 39 41  1  0
 41 42  1  0
 41 43  1  0
 11 44  1  0
 44  5  1  0
 44  6  1  0
 44  8  1  0
 38 12  1  0
 33 25  1  0
 31 26  1  0
  1 45  1  0
  1 46  1  0
  2 47  1  0
  3 48  1  0
  4 49  1  0
  5 50  1  0
  7 51  1  0
  7 52  1  0
  7 53  1  0
  9 54  1  0
  9 55  1  0
 10 56  1  0
 10 57  1  0
 11 58  1  0
 12 59  1  0
 13 60  1  0
 14 61  1  0
 15 62  1  0
 16 63  1  0
 17 64  1  0
 17 65  1  0
 18 66  1  0
 18 67  1  0
 19 68  1  0
 19 69  1  0
 19 70  1  0
 20 71  1  0
 21 72  1  0
 21 73  1  0
 21 74  1  0
 22 75  1  0
 22 76  1  0
 23 77  1  0
 24 78  1  0
 26 79  1  0
 27 80  1  0
 27 81  1  0
 28 82  1  0
 28 83  1  0
 29 84  1  0
 30 85  1  0
 30 86  1  0
 30 87  1  0
 31 88  1  0
 31 89  1  0
 32 90  1  0
 32 91  1  0
 34 92  1  0
 34 93  1  0
 34 94  1  0
 35 95  1  0
 36 96  1  0
 36 97  1  0
 37 98  1  0
 37 99  1  0
 38100  1  0
 39101  1  0
 40102  1  0
 41103  1  0
 42104  1  0
 42105  1  0
 42106  1  0
 43107  1  0
 43108  1  0
M  END
$$$$
