
     RDKit          2D

 51 55  0  0  0  0  0  0  0  0999 V2000
   10.3808    3.5538    0.0000 C   0  0  0  0  0  0  0  0  0  0  0  0
    9.1521    4.4141    0.0000 C   0  0  0  0  0  0  0  0  0  0  0  0
    7.9234    5.2745    0.0000 C   0  0  0  0  0  0  0  0  0  0  0  0
    6.5639    4.6406    0.0000 C   0  0  0  0  0  0  0  0  0  0  0  0
    5.3352    5.5009    0.0000 C   0  0  0  0  0  0  0  0  0  0  0  0
    4.1064    6.3613    0.0000 C   0  0  0  0  0  0  0  0  0  0  0  0
    3.2461    5.1326    0.0000 C   0  0  0  0  0  0  0  0  0  0  0  0
    4.4748    4.2722    0.0000 C   0  0  0  0  0  0  0  0  0  0  0  0
    3.1153    3.6383    0.0000 C   0  0  0  0  0  0  0  0  0  0  0  0
    1.6211    3.5075    0.0000 C   0  0  0  0  0  0  0  0  0  0  0  0
    0.1268    3.3768    0.0000 C   0  0  0  0  0  0  0  0  0  0  0  0
   -1.3675    3.2461    0.0000 C   0  0  0  0  0  0  0  0  0  0  0  0
    0.2575    1.8825    0.0000 C   0  0  0  0  0  0  0  0  0  0  0  0
   -0.1067   -0.1067    0.0000 C   0  0  0  0  0  0  0  0  0  0  0  0
   -1.0607    0.0000    0.0000 C   0  0  0  0  0  0  0  0  0  0  0  0
   -2.1213   -1.0607    0.0000 C   0  0  0  0  0  0  0  0  0  0  0  0
   -1.0607   -2.1213    0.0000 C   0  0  0  0  0  0  0  0  0  0  0  0
   -0.0000   -1.0607    0.0000 C   0  0  0  0  0  0  0  0  0  0  0  0
    1.0607    0.0000    0.0000 C   0  0  0  0  0  0  0  0  0  0  0  0
    2.1213    1.0607    0.0000 C   0  0  0  0  0  0  0  0  0  0  0  0
    0.0000    1.0607    0.0000 O   0  0  0  0  0  0  0  0  0  0  0  0
   11.6095    2.6934    0.0000 H   0  0  0  0  0  0  0  0  0  0  0  0
    9.5205    2.3250    0.0000 H   0  0  0  0  0  0  0  0  0  0  0  0
   11.2412    4.7825    0.0000 H   0  0  0  0  0  0  0  0  0  0  0  0
   10.0125    5.6429    0.0000 H   0  0  0  0  0  0  0  0  0  0  0  0
    8.2917    3.1854    0.0000 H   0  0  0  0  0  0  0  0  0  0  0  0
    8.0541    6.7688    0.0000 H   0  0  0  0  0  0  0  0  0  0  0  0
    6.4332    3.1463    0.0000 H   0  0  0  0  0  0  0  0  0  0  0  0
    6.1955    6.7297    0.0000 H   0  0  0  0  0  0  0  0  0  0  0  0
    4.9668    7.5900    0.0000 H   0  0  0  0  0  0  0  0  0  0  0  0
    2.8777    7.2217    0.0000 H   0  0  0  0  0  0  0  0  0  0  0  0
    1.9096    5.8136    0.0000 H   0  0  0  0  0  0  0  0  0  0  0  0
    5.4390    3.1231    0.0000 H   0  0  0  0  0  0  0  0  0  0  0  0
    3.6773    2.2475    0.0000 H   0  0  0  0  0  0  0  0  0  0  0  0
    1.7518    2.0133    0.0000 H   0  0  0  0  0  0  0  0  0  0  0  0
    1.3091    4.9748    0.0000 H   0  0  0  0  0  0  0  0  0  0  0  0
   -0.0040    4.8711    0.0000 H   0  0  0  0  0  0  0  0  0  0  0  0
   -2.8618    3.1153    0.0000 H   0  0  0  0  0  0  0  0  0  0  0  0
   -1.4983    4.7404    0.0000 H   0  0  0  0  0  0  0  0  0  0  0  0
   -1.3985    2.3609    0.0000 H   0  0  0  0  0  0  0  0  0  0  0  0
   -0.5222    1.7168    0.0000 H   0  0  0  0  0  0  0  0  0  0  0  0
    1.7518    2.0133    0.0000 H   0  0  0  0  0  0  0  0  0  0  0  0
    1.8825    0.2575    0.0000 H   0  0  0  0  0  0  0  0  0  0  0  0
   -3.1820   -2.1213    0.0000 H   0  0  0  0  0  0  0  0  0  0  0  0
   -3.1820    0.0000    0.0000 H   0  0  0  0  0  0  0  0  0  0  0  0
   -0.0000   -3.1820    0.0000 H   0  0  0  0  0  0  0  0  0  0  0  0
   -2.1213   -3.1820    0.0000 H   0  0  0  0  0  0  0  0  0  0  0  0
    2.1213   -1.0607    0.0000 H   0  0  0  0  0  0  0  0  0  0  0  0
    3.3034    1.9841    0.0000 H   0  0  0  0  0  0  0  0  0  0  0  0
    3.1820    0.0000    0.0000 H   0  0  0  0  0  0  0  0  0  0  0  0
    1.0607    2.1213    0.0000 H   0  0  0  0  0  0  0  0  0  0  0  0
  1  2  1  0
  2  3  1  0
  3  4  2  3
  4  5  1  0
  5  6  1  0
  6  7  1  0
  7  8  1  0
  8  9  1  0
  9 10  1  0
 10 11  1  0
 11 12  1  0
 11 13  1  0
 13 14  1  0
 14 15  1  0
 15 16  1  0
 16 17  1  0
 18 17  1  1
 18 19  1  0
 19 20  1  0
 19 21  1  0
  8  5  1  0
 18 14  1  0
  9  7  1  0
 18 15  1  0
 15 21  1  6
  1 22  1  0
  1 23  1  0
  1 24  1  0
  2 25  1  0
  2 26  1  0
  3 27  1  0
  4 28  1  0
  5 29  1  6
  6 30  1  0
  6 31  1  0
  7 32  1  6
  8 33  1  6
  9 34  1  1
 10 35  1  0
 10 36  1  0
 11 37  1  1
 12 38  1  0
 12 39  1  0
 12 40  1  0
 13 41  1  0
 13 42  1  0
 14 43  1  1
 16 44  1  0
 16 45  1  0
 17 46  1  0
 17 47  1  0
 19 48  1  1
 20 49  1  0
 20 50  1  0
 20 51  1  0
M  END
$$$$
