
     RDKit          2D

 48 53  0  0  0  0  0  0  0  0999 V2000
   -5.4384   -6.5980    0.0000 C   0  0  0  0  0  0  0  0  0  0  0  0
   -4.5934   -5.3587    0.0000 C   0  0  0  0  0  0  0  0  0  0  0  0
   -3.4491   -6.3286    0.0000 C   0  0  0  0  0  0  0  0  0  0  0  0
   -3.4043   -7.8279    0.0000 C   0  0  0  0  0  0  0  0  0  0  0  0
   -2.0834   -8.5387    0.0000 C   0  0  0  0  0  0  0  0  0  0  0  0
   -0.8074   -7.7502    0.0000 C   0  0  0  0  0  0  0  0  0  0  0  0
   -0.8522   -6.2509    0.0000 C   0  0  0  0  0  0  0  0  0  0  0  0
   -2.1731   -5.5401    0.0000 C   0  0  0  0  0  0  0  0  0  0  0  0
   -2.5287   -4.0828    0.0000 C   0  0  0  0  0  0  0  0  0  0  0  0
   -4.0246   -3.9707    0.0000 C   0  0  0  0  0  0  0  0  0  0  0  0
   -4.8695   -2.7314    0.0000 C   0  0  0  0  0  0  0  0  0  0  0  0
   -4.4274   -1.2980    0.0000 C   0  0  0  0  0  0  0  0  0  0  0  0
   -3.0311   -0.7500    0.0000 C   0  0  0  0  0  0  0  0  0  0  0  0
   -3.0311    0.7500    0.0000 C   0  0  0  0  0  0  0  0  0  0  0  0
   -1.7321    1.5000    0.0000 C   0  0  0  0  0  0  0  0  0  0  0  0
   -0.4330    0.7500    0.0000 C   0  0  0  0  0  0  0  0  0  0  0  0
    0.8660    0.0000    0.0000 C   0  0  0  0  0  0  0  0  0  0  0  0
   -0.4330   -0.7500    0.0000 C   0  0  0  0  0  0  0  0  0  0  0  0
   -1.7321   -1.5000    0.0000 C   0  0  0  0  0  0  0  0  0  0  0  0
   -1.5085   -2.9832    0.0000 C   0  0  0  0  0  0  0  0  0  0  0  0
   -6.2834   -7.8374    0.0000 H   0  0  0  0  0  0  0  0  0  0  0  0
   -6.6777   -5.7531    0.0000 H   0  0  0  0  0  0  0  0  0  0  0  0
   -4.8394   -7.1240    0.0000 H   0  0  0  0  0  0  0  0  0  0  0  0
   -6.0470   -4.9886    0.0000 H   0  0  0  0  0  0  0  0  0  0  0  0
   -3.9957   -6.9089    0.0000 H   0  0  0  0  0  0  0  0  0  0  0  0
   -4.6803   -8.6164    0.0000 H   0  0  0  0  0  0  0  0  0  0  0  0
   -2.0385  -10.0380    0.0000 H   0  0  0  0  0  0  0  0  0  0  0  0
    0.6614   -7.4456    0.0000 H   0  0  0  0  0  0  0  0  0  0  0  0
   -0.2524   -9.1438    0.0000 H   0  0  0  0  0  0  0  0  0  0  0  0
    0.4238   -5.4623    0.0000 H   0  0  0  0  0  0  0  0  0  0  0  0
   -0.9865   -4.6225    0.0000 H   0  0  0  0  0  0  0  0  0  0  0  0
   -3.0136   -2.6633    0.0000 H   0  0  0  0  0  0  0  0  0  0  0  0
   -5.5163   -4.1275    0.0000 H   0  0  0  0  0  0  0  0  0  0  0  0
   -6.1255   -3.5514    0.0000 H   0  0  0  0  0  0  0  0  0  0  0  0
   -6.2503   -2.1453    0.0000 H   0  0  0  0  0  0  0  0  0  0  0  0
   -5.8984   -1.0044    0.0000 H   0  0  0  0  0  0  0  0  0  0  0  0
   -4.8301    0.1469    0.0000 H   0  0  0  0  0  0  0  0  0  0  0  0
   -1.7917    0.0950    0.0000 H   0  0  0  0  0  0  0  0  0  0  0  0
   -3.5441    2.1595    0.0000 H   0  0  0  0  0  0  0  0  0  0  0  0
   -4.5290    0.6715    0.0000 H   0  0  0  0  0  0  0  0  0  0  0  0
   -0.7679    2.6491    0.0000 H   0  0  0  0  0  0  0  0  0  0  0  0
   -2.6962    2.6491    0.0000 H   0  0  0  0  0  0  0  0  0  0  0  0
    0.3170    2.0490    0.0000 H   0  0  0  0  0  0  0  0  0  0  0  0
    1.8302    1.1491    0.0000 H   0  0  0  0  0  0  0  0  0  0  0  0
    1.8302   -1.1491    0.0000 H   0  0  0  0  0  0  0  0  0  0  0  0
    0.4697   -1.9479    0.0000 H   0  0  0  0  0  0  0  0  0  0  0  0
   -0.4700   -2.3107    0.0000 H   0  0  0  0  0  0  0  0  0  0  0  0
   -0.0751   -3.4254    0.0000 H   0  0  0  0  0  0  0  0  0  0  0  0
  1  2  1  0
  2  3  1  0
  3  4  1  0
  4  5  2  0
  5  6  1  0
  6  7  1  0
  7  8  1  0
  8  9  1  0
  9 10  1  0
 10 11  1  0
 11 12  1  0
 12 13  1  0
 13 14  1  0
 14 15  1  0
 15 16  1  0
 16 17  1  0
 17 18  1  0
 18 19  1  0
 19 20  1  0
 10  2  1  0
 19 13  1  0
  8  3  1  0
 20  9  1  0
 20  7  1  0
 18 16  1  0
  1 21  1  0
  1 22  1  0
  1 23  1  0
  2 24  1  0
  3 25  1  0
  4 26  1  0
  5 27  1  0
  6 28  1  0
  6 29  1  0
  7 30  1  0
  8 31  1  0
  9 32  1  0
 10 33  1  0
 11 34  1  0
 11 35  1  0
 12 36  1  0
 12 37  1  0
 13 38  1  0
 14 39  1  0
 14 40  1  0
 15 41  1  0
 15 42  1  0
 16 43  1  0
 17 44  1  0
 17 45  1  0
 18 46  1  0
 19 47  1  0
 20 48  1  0
M  END
$$$$
