
     RDKit          2D

 27 27  0  0  0  0  0  0  0  0999 V2000
    4.2426    1.0607    0.0000 O   0  0  0  0  0  0  0  0  0  0  0  0
    3.1820    2.1213    0.0000 C   0  0  0  0  0  0  0  0  0  0  0  0
    2.1213    1.0607    0.0000 C   0  0  0  0  0  0  0  0  0  0  0  0
    1.0607    0.0000    0.0000 C   0  0  0  0  0  0  0  0  0  0  0  0
    0.0000   -1.0607    0.0000 C   0  0  0  0  0  0  0  0  0  0  0  0
    1.0607   -2.1213    0.0000 C   0  0  0  0  0  0  0  0  0  0  0  0
    2.1213   -1.0607    0.0000 C   0  0  0  0  0  0  0  0  0  0  0  0
    4.2426    3.1820    0.0000 N   0  0  0  0  0  0  0  0  0  0  0  0
    3.8544    4.6309    0.0000 C   0  0  0  0  0  0  0  0  0  0  0  0
    3.4662    6.0798    0.0000 C   0  0  0  0  0  0  0  0  0  0  0  0
    3.0780    7.5286    0.0000 Cl  0  0  0  0  0  0  0  0  0  0  0  0
    5.6915    1.4489    0.0000 H   0  0  0  0  0  0  0  0  0  0  0  0
    2.1213    3.1820    0.0000 H   0  0  0  0  0  0  0  0  0  0  0  0
    1.0607    2.1213    0.0000 H   0  0  0  0  0  0  0  0  0  0  0  0
    2.8193    0.5154    0.0000 H   0  0  0  0  0  0  0  0  0  0  0  0
    0.0000    1.0607    0.0000 H   0  0  0  0  0  0  0  0  0  0  0  0
   -1.0607   -0.0000    0.0000 H   0  0  0  0  0  0  0  0  0  0  0  0
   -1.0607   -2.1213    0.0000 H   0  0  0  0  0  0  0  0  0  0  0  0
    0.0000   -3.1820    0.0000 H   0  0  0  0  0  0  0  0  0  0  0  0
    2.1213   -3.1820    0.0000 H   0  0  0  0  0  0  0  0  0  0  0  0
    3.1820   -2.1213    0.0000 H   0  0  0  0  0  0  0  0  0  0  0  0
    2.8193   -0.5154    0.0000 H   0  0  0  0  0  0  0  0  0  0  0  0
    5.6915    2.7938    0.0000 H   0  0  0  0  0  0  0  0  0  0  0  0
    2.4055    4.2426    0.0000 H   0  0  0  0  0  0  0  0  0  0  0  0
    5.3033    5.0191    0.0000 H   0  0  0  0  0  0  0  0  0  0  0  0
    2.0173    5.6915    0.0000 H   0  0  0  0  0  0  0  0  0  0  0  0
    4.9151    6.4680    0.0000 H   0  0  0  0  0  0  0  0  0  0  0  0
  1  2  1  0
  2  3  1  0
  3  4  1  0
  4  5  1  0
  5  6  1  0
  6  7  1  0
  2  8  1  0
  8  9  1  0
  9 10  1  0
 10 11  1  0
  7  4  1  0
  1 12  1  0
  2 13  1  0
  3 14  1  0
  3 15  1  0
  4 16  1  0
  5 17  1  0
  5 18  1  0
  6 19  1  0
  6 20  1  0
  7 21  1  0
  7 22  1  0
  8 23  1  0
  9 24  1  0
  9 25  1  0
 10 26  1  0
 10 27  1  0
M  END
$$$$
