
     RDKit          2D

 54 59  0  0  0  0  0  0  0  0999 V2000
    1.7139   -6.3086    0.0000 C   0  0  0  0  0  0  0  0  0  0  0  0
    1.7139   -4.8086    0.0000 C   0  0  0  0  0  0  0  0  0  0  0  0
    1.7139   -3.3086    0.0000 C   0  0  0  0  0  0  0  0  0  0  0  0
    1.2009   -1.8991    0.0000 C   0  0  0  0  0  0  0  0  0  0  0  0
    2.1651   -0.7500    0.0000 C   0  0  0  0  0  0  0  0  0  0  0  0
    0.8660    0.0000    0.0000 C   0  0  0  0  0  0  0  0  0  0  0  0
   -0.4330    0.7500    0.0000 C   0  0  0  0  0  0  0  0  0  0  0  0
   -0.4330   -0.7500    0.0000 C   0  0  0  0  0  0  0  0  0  0  0  0
   -1.9002   -0.4381    0.0000 C   0  0  0  0  0  0  0  0  0  0  0  0
   -2.0570    1.0537    0.0000 C   0  0  0  0  0  0  0  0  0  0  0  0
   -3.0607    2.1684    0.0000 C   0  0  0  0  0  0  0  0  0  0  0  0
   -2.3107    3.4674    0.0000 C   0  0  0  0  0  0  0  0  0  0  0  0
   -0.8435    3.1555    0.0000 C   0  0  0  0  0  0  0  0  0  0  0  0
   -0.6867    1.6638    0.0000 C   0  0  0  0  0  0  0  0  0  0  0  0
    0.8660    1.5000    0.0000 C   0  0  0  0  0  0  0  0  0  0  0  0
    3.6423   -1.0105    0.0000 C   0  0  0  0  0  0  0  0  0  0  0  0
    4.1553   -2.4200    0.0000 C   0  0  0  0  0  0  0  0  0  0  0  0
    5.4543   -1.6700    0.0000 O   0  0  0  0  0  0  0  0  0  0  0  0
    6.7534   -2.4200    0.0000 C   0  0  0  0  0  0  0  0  0  0  0  0
    3.1911   -3.5691    0.0000 C   0  0  0  0  0  0  0  0  0  0  0  0
    4.4902   -4.3191    0.0000 C   0  0  0  0  0  0  0  0  0  0  0  0
    2.6781   -4.9786    0.0000 C   0  0  0  0  0  0  0  0  0  0  0  0
    2.5948   -5.7714    0.0000 Cl  0  0  0  0  0  0  0  0  0  0  0  0
    1.7139   -7.8086    0.0000 H   0  0  0  0  0  0  0  0  0  0  0  0
    2.5051   -6.4058    0.0000 H   0  0  0  0  0  0  0  0  0  0  0  0
    0.2139   -6.3086    0.0000 H   0  0  0  0  0  0  0  0  0  0  0  0
    0.2139   -4.8086    0.0000 H   0  0  0  0  0  0  0  0  0  0  0  0
    3.1693   -5.1716    0.0000 H   0  0  0  0  0  0  0  0  0  0  0  0
    0.2367   -3.5691    0.0000 H   0  0  0  0  0  0  0  0  0  0  0  0
   -0.0982   -2.6491    0.0000 H   0  0  0  0  0  0  0  0  0  0  0  0
   -0.0127   -1.0175    0.0000 H   0  0  0  0  0  0  0  0  0  0  0  0
    2.6781    0.6595    0.0000 H   0  0  0  0  0  0  0  0  0  0  0  0
   -1.5120    1.7920    0.0000 H   0  0  0  0  0  0  0  0  0  0  0  0
   -2.0570   -1.9299    0.0000 H   0  0  0  0  0  0  0  0  0  0  0  0
   -3.3890   -0.6210    0.0000 H   0  0  0  0  0  0  0  0  0  0  0  0
   -3.4273    0.4435    0.0000 H   0  0  0  0  0  0  0  0  0  0  0  0
   -4.1928    1.1843    0.0000 H   0  0  0  0  0  0  0  0  0  0  0  0
   -4.2742    3.0500    0.0000 H   0  0  0  0  0  0  0  0  0  0  0  0
   -3.6810    4.0775    0.0000 H   0  0  0  0  0  0  0  0  0  0  0  0
   -1.8472    4.8940    0.0000 H   0  0  0  0  0  0  0  0  0  0  0  0
   -0.6867    4.6473    0.0000 H   0  0  0  0  0  0  0  0  0  0  0  0
    0.6453    3.3384    0.0000 H   0  0  0  0  0  0  0  0  0  0  0  0
    0.5990    2.4363    0.0000 H   0  0  0  0  0  0  0  0  0  0  0  0
    3.6423    0.4895    0.0000 H   0  0  0  0  0  0  0  0  0  0  0  0
    5.1195   -0.7500    0.0000 H   0  0  0  0  0  0  0  0  0  0  0  0
    5.1195   -3.5691    0.0000 H   0  0  0  0  0  0  0  0  0  0  0  0
    8.0524   -3.1700    0.0000 H   0  0  0  0  0  0  0  0  0  0  0  0
    7.5034   -1.1210    0.0000 H   0  0  0  0  0  0  0  0  0  0  0  0
    6.1673   -3.8008    0.0000 H   0  0  0  0  0  0  0  0  0  0  0  0
    5.7892   -5.0691    0.0000 H   0  0  0  0  0  0  0  0  0  0  0  0
    4.0768   -5.7610    0.0000 H   0  0  0  0  0  0  0  0  0  0  0  0
    5.3929   -3.1211    0.0000 H   0  0  0  0  0  0  0  0  0  0  0  0
    1.1863   -4.8219    0.0000 H   0  0  0  0  0  0  0  0  0  0  0  0
    4.0146   -5.6596    0.0000 H   0  0  0  0  0  0  0  0  0  0  0  0
  1  2  1  0
  2  3  1  0
  3  4  1  0
  4  5  1  0
  5  6  1  0
  6  7  1  0
  7  8  1  0
  8  9  1  0
  9 10  1  0
 10 11  1  0
 11 12  1  0
 12 13  1  0
 13 14  1  0
 14 15  1  0
  5 16  1  0
 16 17  1  0
 17 18  1  0
 18 19  1  0
 17 20  1  0
 20 21  1  0
 20 22  1  0
 22 23  1  0
 20  3  1  0
  8  6  1  0
 14 10  1  0
 15  6  1  0
 15  7  1  0
 15  8  1  0
  1 24  1  0
  1 25  1  0
  1 26  1  0
  2 27  1  0
  2 28  1  0
  3 29  1  0
  4 30  1  0
  4 31  1  0
  5 32  1  0
  7 33  1  0
  9 34  1  0
  9 35  1  0
 10 36  1  0
 11 37  1  0
 11 38  1  0
 12 39  1  0
 12 40  1  0
 13 41  1  0
 13 42  1  0
 14 43  1  0
 16 44  1  0
 16 45  1  0
 17 46  1  0
 19 47  1  0
 19 48  1  0
 19 49  1  0
 21 50  1  0
 21 51  1  0
 21 52  1  0
 22 53  1  0
 22 54  1  0
M  END
$$$$
