
     RDKit          2D

 31 31  0  0  0  0  0  0  0  0999 V2000
    5.7488    1.7772    0.0000 C   0  0  0  0  0  0  0  0  0  0  0  0
    4.2716    2.0377    0.0000 C   0  0  0  0  0  0  0  0  0  0  0  0
    3.3074    0.8886    0.0000 C   0  0  0  0  0  0  0  0  0  0  0  0
    1.8302    1.1491    0.0000 C   0  0  0  0  0  0  0  0  0  0  0  0
    0.8660    0.0000    0.0000 C   0  0  0  0  0  0  0  0  0  0  0  0
   -0.4330    0.7500    0.0000 C   0  0  0  0  0  0  0  0  0  0  0  0
   -0.4330   -0.7500    0.0000 C   0  0  0  0  0  0  0  0  0  0  0  0
    0.0800   -2.1595    0.0000 C   0  0  0  0  0  0  0  0  0  0  0  0
    3.7586    3.4472    0.0000 C   0  0  0  0  0  0  0  0  0  0  0  0
    3.2455    4.8567    0.0000 C   0  0  0  0  0  0  0  0  0  0  0  0
    2.7325    6.2663    0.0000 C   0  0  0  0  0  0  0  0  0  0  0  0
    2.2195    7.6758    0.0000 N   0  0  0  0  0  0  0  0  0  0  0  0
    6.7130    2.9263    0.0000 H   0  0  0  0  0  0  0  0  0  0  0  0
    6.2618    0.3676    0.0000 H   0  0  0  0  0  0  0  0  0  0  0  0
    3.8204   -0.5209    0.0000 H   0  0  0  0  0  0  0  0  0  0  0  0
    1.3172    2.5586    0.0000 H   0  0  0  0  0  0  0  0  0  0  0  0
    1.8534   -0.9207    0.0000 H   0  0  0  0  0  0  0  0  0  0  0  0
   -1.9102    1.0105    0.0000 H   0  0  0  0  0  0  0  0  0  0  0  0
    0.0800    2.1595    0.0000 H   0  0  0  0  0  0  0  0  0  0  0  0
   -1.9102   -1.0105    0.0000 H   0  0  0  0  0  0  0  0  0  0  0  0
    0.5930   -3.5691    0.0000 H   0  0  0  0  0  0  0  0  0  0  0  0
    1.3954   -1.8559    0.0000 H   0  0  0  0  0  0  0  0  0  0  0  0
   -1.3295   -2.6726    0.0000 H   0  0  0  0  0  0  0  0  0  0  0  0
    5.1681    3.9602    0.0000 H   0  0  0  0  0  0  0  0  0  0  0  0
    2.3490    2.9342    0.0000 H   0  0  0  0  0  0  0  0  0  0  0  0
    4.6551    5.3698    0.0000 H   0  0  0  0  0  0  0  0  0  0  0  0
    1.8360    4.3437    0.0000 H   0  0  0  0  0  0  0  0  0  0  0  0
    1.3230    5.7532    0.0000 H   0  0  0  0  0  0  0  0  0  0  0  0
    4.1420    6.7793    0.0000 H   0  0  0  0  0  0  0  0  0  0  0  0
    3.1837    8.8249    0.0000 H   0  0  0  0  0  0  0  0  0  0  0  0
    0.7423    7.9363    0.0000 H   0  0  0  0  0  0  0  0  0  0  0  0
  1  2  2  3
  2  3  1  0
  3  4  2  3
  4  5  1  0
  5  6  1  0
  6  7  1  0
  7  8  1  0
  2  9  1  0
  9 10  1  0
 10 11  1  0
 11 12  1  0
  7  5  1  0
  1 13  1  0
  1 14  1  0
  3 15  1  0
  4 16  1  0
  5 17  1  1
  6 18  1  0
  6 19  1  0
  7 20  1  6
  8 21  1  0
  8 22  1  0
  8 23  1  0
  9 24  1  0
  9 25  1  0
 10 26  1  0
 10 27  1  0
 11 28  1  0
 11 29  1  0
 12 30  1  0
 12 31  1  0
M  END
$$$$
