
     RDKit          2D

109118  0  0  0  0  0  0  0  0999 V2000
   -4.6010   12.6279    0.0000 C   0  0  0  0  0  0  0  0  0  0  0  0
   -4.3112   11.1562    0.0000 C   0  0  0  0  0  0  0  0  0  0  0  0
   -2.8917   10.6713    0.0000 C   0  0  0  0  0  0  0  0  0  0  0  0
   -1.4722   10.1865    0.0000 C   0  0  0  0  0  0  0  0  0  0  0  0
   -1.9570    8.7670    0.0000 C   0  0  0  0  0  0  0  0  0  0  0  0
   -3.3765    9.2519    0.0000 C   0  0  0  0  0  0  0  0  0  0  0  0
   -3.0866    7.7801    0.0000 C   0  0  0  0  0  0  0  0  0  0  0  0
   -4.5200    7.3380    0.0000 C   0  0  0  0  0  0  0  0  0  0  0  0
   -5.0180    5.6915    0.0000 N   0  0  0  0  0  0  0  0  0  0  0  0
   -5.8630    4.4521    0.0000 C   0  0  0  0  0  0  0  0  0  0  0  0
   -6.0866    2.9689    0.0000 C   0  0  0  0  0  0  0  0  0  0  0  0
   -5.6444    1.5355    0.0000 C   0  0  0  0  0  0  0  0  0  0  0  0
   -6.2953    0.1840    0.0000 Cl  0  0  0  0  0  0  0  0  0  0  0  0
   -4.6242    0.4359    0.0000 C   0  0  0  0  0  0  0  0  0  0  0  0
   -3.2279   -0.1121    0.0000 C   0  0  0  0  0  0  0  0  0  0  0  0
   -3.1158   -1.6079    0.0000 C   0  0  0  0  0  0  0  0  0  0  0  0
   -3.0037   -3.1037    0.0000 C   0  0  0  0  0  0  0  0  0  0  0  0
   -1.6200   -1.4958    0.0000 C   0  0  0  0  0  0  0  0  0  0  0  0
   -1.7321    0.0000    0.0000 C   0  0  0  0  0  0  0  0  0  0  0  0
   -0.4330   -0.7500    0.0000 C   0  0  0  0  0  0  0  0  0  0  0  0
    0.5120   -1.7962    0.0000 C   0  0  0  0  0  0  0  0  0  0  0  0
    1.8478   -2.4786    0.0000 C   0  0  0  0  0  0  0  0  0  0  0  0
    3.3474   -2.5137    0.0000 C   0  0  0  0  0  0  0  0  0  0  0  0
    4.7137   -1.8948    0.0000 C   0  0  0  0  0  0  0  0  0  0  0  0
    5.6762   -0.7443    0.0000 C   0  0  0  0  0  0  0  0  0  0  0  0
    6.0442    0.7099    0.0000 C   0  0  0  0  0  0  0  0  0  0  0  0
    5.7448    2.1797    0.0000 C   0  0  0  0  0  0  0  0  0  0  0  0
    6.5250    3.4608    0.0000 C   0  0  0  0  0  0  0  0  0  0  0  0
    7.3053    4.7419    0.0000 C   0  0  0  0  0  0  0  0  0  0  0  0
    8.0855    6.0230    0.0000 C   0  0  0  0  0  0  0  0  0  0  0  0
    8.8658    7.3041    0.0000 C   0  0  0  0  0  0  0  0  0  0  0  0
    4.8373    3.3741    0.0000 C   0  0  0  0  0  0  0  0  0  0  0  0
    3.5015    4.0564    0.0000 C   0  0  0  0  0  0  0  0  0  0  0  0
    2.0019    4.0916    0.0000 C   0  0  0  0  0  0  0  0  0  0  0  0
    0.6355    3.4726    0.0000 C   0  0  0  0  0  0  0  0  0  0  0  0
    0.1934    4.9060    0.0000 C   0  0  0  0  0  0  0  0  0  0  0  0
   -0.8269    6.0055    0.0000 C   0  0  0  0  0  0  0  0  0  0  0  0
   -0.8269    7.5055    0.0000 C   0  0  0  0  0  0  0  0  0  0  0  0
   -2.2232    6.5536    0.0000 C   0  0  0  0  0  0  0  0  0  0  0  0
   -3.7190    6.4415    0.0000 C   0  0  0  0  0  0  0  0  0  0  0  0
   -5.0401    5.7152    0.0000 C   0  0  0  0  0  0  0  0  0  0  0  0
   -4.3404    3.7189    0.0000 C   0  0  0  0  0  0  0  0  0  0  0  0
    0.4120    1.9894    0.0000 C   0  0  0  0  0  0  0  0  0  0  0  0
   -0.4330    0.7500    0.0000 C   0  0  0  0  0  0  0  0  0  0  0  0
    0.8660    0.0000    0.0000 O   0  0  0  0  0  0  0  0  0  0  0  0
   -6.0205   13.1127    0.0000 H   0  0  0  0  0  0  0  0  0  0  0  0
   -3.4714   13.6148    0.0000 H   0  0  0  0  0  0  0  0  0  0  0  0
   -5.4408   10.1693    0.0000 H   0  0  0  0  0  0  0  0  0  0  0  0
   -2.4069   12.0908    0.0000 H   0  0  0  0  0  0  0  0  0  0  0  0
   -0.9874   11.6060    0.0000 H   0  0  0  0  0  0  0  0  0  0  0  0
   -0.0527    9.7017    0.0000 H   0  0  0  0  0  0  0  0  0  0  0  0
   -0.5461    8.2576    0.0000 H   0  0  0  0  0  0  0  0  0  0  0  0
   -4.8496    9.5344    0.0000 H   0  0  0  0  0  0  0  0  0  0  0  0
   -4.9871    8.7634    0.0000 H   0  0  0  0  0  0  0  0  0  0  0  0
   -6.0139    7.2035    0.0000 H   0  0  0  0  0  0  0  0  0  0  0  0
   -7.2593    5.0001    0.0000 H   0  0  0  0  0  0  0  0  0  0  0  0
   -7.3646    2.1835    0.0000 H   0  0  0  0  0  0  0  0  0  0  0  0
   -7.3856    3.7189    0.0000 H   0  0  0  0  0  0  0  0  0  0  0  0
   -7.1427    1.4644    0.0000 H   0  0  0  0  0  0  0  0  0  0  0  0
   -5.4691   -0.8034    0.0000 H   0  0  0  0  0  0  0  0  0  0  0  0
   -4.5343   -0.8491    0.0000 H   0  0  0  0  0  0  0  0  0  0  0  0
   -4.5867   -1.9015    0.0000 H   0  0  0  0  0  0  0  0  0  0  0  0
   -2.8916   -4.5995    0.0000 H   0  0  0  0  0  0  0  0  0  0  0  0
   -4.4995   -3.2158    0.0000 H   0  0  0  0  0  0  0  0  0  0  0  0
   -1.5079   -2.9916    0.0000 H   0  0  0  0  0  0  0  0  0  0  0  0
   -0.6107   -2.6055    0.0000 H   0  0  0  0  0  0  0  0  0  0  0  0
    0.1839   -3.2599    0.0000 H   0  0  0  0  0  0  0  0  0  0  0  0
   -0.8708   -2.3775    0.0000 H   0  0  0  0  0  0  0  0  0  0  0  0
    2.1873   -3.9396    0.0000 H   0  0  0  0  0  0  0  0  0  0  0  0
    0.8541   -3.6023    0.0000 H   0  0  0  0  0  0  0  0  0  0  0  0
    4.2872   -3.6828    0.0000 H   0  0  0  0  0  0  0  0  0  0  0  0
    2.9397   -3.9573    0.0000 H   0  0  0  0  0  0  0  0  0  0  0  0
    6.0677   -2.5403    0.0000 H   0  0  0  0  0  0  0  0  0  0  0  0
    4.9727   -3.3722    0.0000 H   0  0  0  0  0  0  0  0  0  0  0  0
    7.1762   -0.7384    0.0000 H   0  0  0  0  0  0  0  0  0  0  0  0
    6.5506   -1.9630    0.0000 H   0  0  0  0  0  0  0  0  0  0  0  0
    7.3930    1.3660    0.0000 H   0  0  0  0  0  0  0  0  0  0  0  0
    7.3608   -0.0088    0.0000 H   0  0  0  0  0  0  0  0  0  0  0  0
    7.2428    2.1035    0.0000 H   0  0  0  0  0  0  0  0  0  0  0  0
    7.8061    2.6805    0.0000 H   0  0  0  0  0  0  0  0  0  0  0  0
    5.3486    4.3914    0.0000 H   0  0  0  0  0  0  0  0  0  0  0  0
    8.5864    3.9616    0.0000 H   0  0  0  0  0  0  0  0  0  0  0  0
    6.0242    5.5221    0.0000 H   0  0  0  0  0  0  0  0  0  0  0  0
    6.8044    6.8032    0.0000 H   0  0  0  0  0  0  0  0  0  0  0  0
    9.3666    5.2427    0.0000 H   0  0  0  0  0  0  0  0  0  0  0  0
    9.6460    8.5852    0.0000 H   0  0  0  0  0  0  0  0  0  0  0  0
   10.1469    6.5238    0.0000 H   0  0  0  0  0  0  0  0  0  0  0  0
    7.5847    8.0843    0.0000 H   0  0  0  0  0  0  0  0  0  0  0  0
    4.9844    4.8668    0.0000 H   0  0  0  0  0  0  0  0  0  0  0  0
    6.1389    4.1196    0.0000 H   0  0  0  0  0  0  0  0  0  0  0  0
    3.1619    5.5175    0.0000 H   0  0  0  0  0  0  0  0  0  0  0  0
    4.4951    5.1801    0.0000 H   0  0  0  0  0  0  0  0  0  0  0  0
    1.3728    5.4533    0.0000 H   0  0  0  0  0  0  0  0  0  0  0  0
    2.4096    5.5351    0.0000 H   0  0  0  0  0  0  0  0  0  0  0  0
    2.0598    3.9433    0.0000 H   0  0  0  0  0  0  0  0  0  0  0  0
    1.0041    6.1680    0.0000 H   0  0  0  0  0  0  0  0  0  0  0  0
    1.6300    5.3375    0.0000 H   0  0  0  0  0  0  0  0  0  0  0  0
    0.4922    6.7197    0.0000 H   0  0  0  0  0  0  0  0  0  0  0  0
   -0.8269    9.0055    0.0000 H   0  0  0  0  0  0  0  0  0  0  0  0
    0.6731    7.5055    0.0000 H   0  0  0  0  0  0  0  0  0  0  0  0
   -2.3157    7.6884    0.0000 H   0  0  0  0  0  0  0  0  0  0  0  0
   -1.8205    7.9985    0.0000 H   0  0  0  0  0  0  0  0  0  0  0  0
   -3.8011    7.9392    0.0000 H   0  0  0  0  0  0  0  0  0  0  0  0
   -3.1016    4.8683    0.0000 H   0  0  0  0  0  0  0  0  0  0  0  0
   -4.1168    2.2356    0.0000 H   0  0  0  0  0  0  0  0  0  0  0  0
   -2.8571    3.9424    0.0000 H   0  0  0  0  0  0  0  0  0  0  0  0
   -5.7255    3.1430    0.0000 H   0  0  0  0  0  0  0  0  0  0  0  0
    1.8744    2.3231    0.0000 H   0  0  0  0  0  0  0  0  0  0  0  0
    1.5317    0.9913    0.0000 H   0  0  0  0  0  0  0  0  0  0  0  0
  1  2  2  3
  2  3  1  0
  3  4  1  0
  4  5  1  0
  5  6  1  0
  6  7  1  0
  7  8  1  0
  8  9  1  0
  9 10  1  0
 10 11  1  0
 11 12  1  0
 12 13  1  0
 12 14  1  0
 14 15  1  0
 15 16  1  0
 16 17  1  0
 16 18  1  0
 18 19  1  0
 19 20  1  0
 20 21  1  0
 21 22  1  0
 22 23  1  0
 23 24  1  0
 24 25  1  0
 25 26  1  0
 26 27  1  0
 27 28  1  0
 28 29  1  0
 29 30  1  0
 30 31  1  0
 27 32  1  0
 32 33  1  0
 33 34  1  0
 34 35  1  0
 35 36  1  0
 36 37  1  0
 37 38  1  0
 37 39  1  0
 39 40  1  0
 40 41  1  0
 41 42  1  0
 35 43  1  0
 43 44  1  0
 44 45  1  0
  6  3  1  0
 39  7  1  0
  7  5  1  0
 40  9  1  0
 41 10  1  0
 18 14  1  0
 44 19  1  0
 19 15  1  0
 44 20  1  0
 45 20  1  0
  1 46  1  0
  1 47  1  0
  2 48  1  0
  3 49  1  0
  4 50  1  0
  4 51  1  0
  5 52  1  0
  6 53  1  0
  8 54  1  0
  8 55  1  0
 10 56  1  0
 11 57  1  0
 11 58  1  0
 12 59  1  0
 14 60  1  0
 15 61  1  0
 16 62  1  0
 17 63  1  0
 17 64  1  0
 17 65  1  0
 18 66  1  0
 21 67  1  0
 21 68  1  0
 22 69  1  0
 22 70  1  0
 23 71  1  0
 23 72  1  0
 24 73  1  0
 24 74  1  0
 25 75  1  0
 25 76  1  0
 26 77  1  0
 26 78  1  0
 27 79  1  0
 28 80  1  0
 28 81  1  0
 29 82  1  0
 29 83  1  0
 30 84  1  0
 30 85  1  0
 31 86  1  0
 31 87  1  0
 31 88  1  0
 32 89  1  0
 32 90  1  0
 33 91  1  0
 33 92  1  0
 34 93  1  0
 34 94  1  0
 35 95  1  0
 36 96  1  0
 36 97  1  0
 37 98  1  0
 38 99  1  0
 38100  1  0
 38101  1  0
 39102  1  0
 40103  1  0
 41104  1  0
 42105  1  0
 42106  1  0
 42107  1  0
 43108  1  0
 43109  1  0
M  END
$$$$
