
     RDKit          2D

 29 33  0  0  0  0  0  0  0  0999 V2000
    2.5670    3.3481    0.0000 C   0  0  0  0  0  0  0  0  0  0  0  0
    1.8170    2.0490    0.0000 B   0  0  0  0  0  0  0  0  0  0  0  0
    0.3170    2.0490    0.0000 N   0  0  0  0  0  0  0  0  0  0  0  0
   -0.4330    0.7500    0.0000 C   0  0  0  0  0  0  0  0  0  0  0  0
    0.8660    0.0000    0.0000 N   0  0  0  0  0  0  0  0  0  0  0  0
   -0.4330   -0.7500    0.0000 C   0  0  0  0  0  0  0  0  0  0  0  0
   -1.7321   -1.5000    0.0000 C   0  0  0  0  0  0  0  0  0  0  0  0
   -3.0311   -0.7500    0.0000 C   0  0  0  0  0  0  0  0  0  0  0  0
   -3.0311    0.7500    0.0000 C   0  0  0  0  0  0  0  0  0  0  0  0
   -3.7811    2.0490    0.0000 C   0  0  0  0  0  0  0  0  0  0  0  0
   -2.4821    2.7990    0.0000 N   0  0  0  0  0  0  0  0  0  0  0  0
   -2.0938    4.2479    0.0000 C   0  0  0  0  0  0  0  0  0  0  0  0
   -1.7321    1.5000    0.0000 C   0  0  0  0  0  0  0  0  0  0  0  0
   -3.0311   -2.2500    0.0000 N   0  0  0  0  0  0  0  0  0  0  0  0
    3.3170    4.6471    0.0000 H   0  0  0  0  0  0  0  0  0  0  0  0
    3.8660    2.5981    0.0000 H   0  0  0  0  0  0  0  0  0  0  0  0
    1.2679    4.0981    0.0000 H   0  0  0  0  0  0  0  0  0  0  0  0
    2.7197    0.8511    0.0000 H   0  0  0  0  0  0  0  0  0  0  0  0
   -0.0964    3.4910    0.0000 H   0  0  0  0  0  0  0  0  0  0  0  0
    2.3548   -0.1828    0.0000 H   0  0  0  0  0  0  0  0  0  0  0  0
    0.3170   -2.0490    0.0000 H   0  0  0  0  0  0  0  0  0  0  0  0
   -2.2858   -0.9266    0.0000 H   0  0  0  0  0  0  0  0  0  0  0  0
   -4.5311   -0.7500    0.0000 H   0  0  0  0  0  0  0  0  0  0  0  0
   -4.4800    0.3618    0.0000 H   0  0  0  0  0  0  0  0  0  0  0  0
   -5.2300    2.4373    0.0000 H   0  0  0  0  0  0  0  0  0  0  0  0
   -1.7056    5.6968    0.0000 H   0  0  0  0  0  0  0  0  0  0  0  0
   -3.5427    4.6362    0.0000 H   0  0  0  0  0  0  0  0  0  0  0  0
   -0.6084    4.0392    0.0000 H   0  0  0  0  0  0  0  0  0  0  0  0
   -0.8086    2.6820    0.0000 H   0  0  0  0  0  0  0  0  0  0  0  0
  1  2  1  0
  2  3  1  0
  3  4  1  0
  4  5  1  0
  5  6  1  0
  6  7  1  0
  7  8  1  0
  8  9  1  0
  9 10  1  0
 10 11  1  0
 11 12  1  0
 11 13  1  0
 10 14  1  0
  6  4  1  0
 14  7  1  0
 13  4  1  0
 14  8  1  0
 13  9  1  0
  1 15  1  0
  1 16  1  0
  1 17  1  0
  2 18  1  0
  3 19  1  0
  5 20  1  0
  6 21  1  0
  7 22  1  0
  8 23  1  0
  9 24  1  0
 10 25  1  0
 12 26  1  0
 12 27  1  0
 12 28  1  0
 13 29  1  0
M  END
$$$$
