
     RDKit          2D

 39 41  0  0  0  0  0  0  0  0999 V2000
   -4.8646    1.5314    0.0000 C   0  0  0  0  0  0  0  0  0  0  0  0
   -3.3874    1.2709    0.0000 C   0  0  0  0  0  0  0  0  0  0  0  0
   -1.9102    1.0105    0.0000 C   0  0  0  0  0  0  0  0  0  0  0  0
   -0.4330    0.7500    0.0000 C   0  0  0  0  0  0  0  0  0  0  0  0
    0.8660    0.0000    0.0000 C   0  0  0  0  0  0  0  0  0  0  0  0
   -0.4330   -0.7500    0.0000 C   0  0  0  0  0  0  0  0  0  0  0  0
   -0.4330   -2.2500    0.0000 C   0  0  0  0  0  0  0  0  0  0  0  0
   -1.7321   -1.5000    0.0000 C   0  0  0  0  0  0  0  0  0  0  0  0
   -3.6479   -0.2063    0.0000 C   0  0  0  0  0  0  0  0  0  0  0  0
   -3.9084   -1.6835    0.0000 C   0  0  0  0  0  0  0  0  0  0  0  0
   -4.1689   -3.1607    0.0000 C   0  0  0  0  0  0  0  0  0  0  0  0
   -4.4293   -4.6379    0.0000 O   0  0  0  0  0  0  0  0  0  0  0  0
   -5.1251    0.0542    0.0000 C   0  0  0  0  0  0  0  0  0  0  0  0
   -6.6023   -0.2063    0.0000 C   0  0  0  0  0  0  0  0  0  0  0  0
   -5.6382   -1.3553    0.0000 C   0  0  0  0  0  0  0  0  0  0  0  0
   -6.3419    1.7919    0.0000 H   0  0  0  0  0  0  0  0  0  0  0  0
   -4.6042    3.0086    0.0000 H   0  0  0  0  0  0  0  0  0  0  0  0
   -5.1889    0.8032    0.0000 H   0  0  0  0  0  0  0  0  0  0  0  0
   -3.1270    2.7482    0.0000 H   0  0  0  0  0  0  0  0  0  0  0  0
   -2.1707   -0.4667    0.0000 H   0  0  0  0  0  0  0  0  0  0  0  0
   -1.6498    2.4877    0.0000 H   0  0  0  0  0  0  0  0  0  0  0  0
    0.0800    2.1595    0.0000 H   0  0  0  0  0  0  0  0  0  0  0  0
    1.8302    1.1491    0.0000 H   0  0  0  0  0  0  0  0  0  0  0  0
    1.8302   -1.1491    0.0000 H   0  0  0  0  0  0  0  0  0  0  0  0
    1.0442   -2.5105    0.0000 H   0  0  0  0  0  0  0  0  0  0  0  0
   -0.9460   -3.6595    0.0000 H   0  0  0  0  0  0  0  0  0  0  0  0
   -2.3895   -2.8482    0.0000 H   0  0  0  0  0  0  0  0  0  0  0  0
   -2.6962   -0.3509    0.0000 H   0  0  0  0  0  0  0  0  0  0  0  0
   -2.1707   -0.4667    0.0000 H   0  0  0  0  0  0  0  0  0  0  0  0
   -5.4047   -1.7882    0.0000 H   0  0  0  0  0  0  0  0  0  0  0  0
   -2.4739   -2.1221    0.0000 H   0  0  0  0  0  0  0  0  0  0  0  0
   -5.6461   -2.9002    0.0000 H   0  0  0  0  0  0  0  0  0  0  0  0
   -2.7344   -3.5993    0.0000 H   0  0  0  0  0  0  0  0  0  0  0  0
   -5.8389   -5.1509    0.0000 H   0  0  0  0  0  0  0  0  0  0  0  0
   -5.4881    1.5096    0.0000 H   0  0  0  0  0  0  0  0  0  0  0  0
   -7.1154    1.2033    0.0000 H   0  0  0  0  0  0  0  0  0  0  0  0
   -7.9014   -0.9563    0.0000 H   0  0  0  0  0  0  0  0  0  0  0  0
   -6.6023   -2.5044    0.0000 H   0  0  0  0  0  0  0  0  0  0  0  0
   -4.5592   -2.3974    0.0000 H   0  0  0  0  0  0  0  0  0  0  0  0
  1  2  1  0
  2  3  1  0
  3  4  1  0
  4  5  1  0
  5  6  1  0
  6  7  1  0
  7  8  1  0
  2  9  1  0
  9 10  1  0
 10 11  1  0
 11 12  1  0
  9 13  1  0
 13 14  1  0
 14 15  1  0
  6  4  1  0
 15 13  1  0
  8  6  1  0
  1 16  1  0
  1 17  1  0
  1 18  1  0
  2 19  1  0
  3 20  1  0
  3 21  1  0
  4 22  1  0
  5 23  1  0
  5 24  1  0
  7 25  1  0
  7 26  1  0
  8 27  1  0
  8 28  1  0
  9 29  1  0
 10 30  1  0
 10 31  1  0
 11 32  1  0
 11 33  1  0
 12 34  1  0
 13 35  1  0
 14 36  1  0
 14 37  1  0
 15 38  1  0
 15 39  1  0
M  END
$$$$
