
     RDKit          2D

 70 73  0  0  0  0  0  0  0  0999 V2000
    4.2716    2.0377    0.0000 C   0  0  0  0  0  0  0  0  0  0  0  0
    3.3074    0.8886    0.0000 C   0  0  0  0  0  0  0  0  0  0  0  0
    1.8302    1.1491    0.0000 C   0  0  0  0  0  0  0  0  0  0  0  0
    0.8660    0.0000    0.0000 C   0  0  0  0  0  0  0  0  0  0  0  0
    1.8302   -1.1491    0.0000 C   0  0  0  0  0  0  0  0  0  0  0  0
    2.7944   -2.2981    0.0000 C   0  0  0  0  0  0  0  0  0  0  0  0
    3.7586   -3.4472    0.0000 C   0  0  0  0  0  0  0  0  0  0  0  0
    4.2716   -4.8567    0.0000 N   0  0  0  0  0  0  0  0  0  0  0  0
    2.7944   -4.5963    0.0000 C   0  0  0  0  0  0  0  0  0  0  0  0
    2.2814   -6.0058    0.0000 C   0  0  0  0  0  0  0  0  0  0  0  0
    0.8718   -5.4928    0.0000 C   0  0  0  0  0  0  0  0  0  0  0  0
    3.6909   -6.5188    0.0000 C   0  0  0  0  0  0  0  0  0  0  0  0
    3.1779   -7.9284    0.0000 C   0  0  0  0  0  0  0  0  0  0  0  0
    2.6648   -9.3379    0.0000 C   0  0  0  0  0  0  0  0  0  0  0  0
    2.1518  -10.7475    0.0000 C   0  0  0  0  0  0  0  0  0  0  0  0
    1.7683   -7.4153    0.0000 N   0  0  0  0  0  0  0  0  0  0  0  0
   -0.4330    0.7500    0.0000 C   0  0  0  0  0  0  0  0  0  0  0  0
   -1.7321    1.5000    0.0000 C   0  0  0  0  0  0  0  0  0  0  0  0
   -3.0311    0.7500    0.0000 C   0  0  0  0  0  0  0  0  0  0  0  0
   -4.5083    0.4895    0.0000 C   0  0  0  0  0  0  0  0  0  0  0  0
   -5.9855    0.2291    0.0000 C   0  0  0  0  0  0  0  0  0  0  0  0
   -3.0311   -0.7500    0.0000 C   0  0  0  0  0  0  0  0  0  0  0  0
   -3.5441   -2.1595    0.0000 C   0  0  0  0  0  0  0  0  0  0  0  0
   -4.0571   -3.5691    0.0000 C   0  0  0  0  0  0  0  0  0  0  0  0
   -1.7321   -1.5000    0.0000 C   0  0  0  0  0  0  0  0  0  0  0  0
   -0.4330   -0.7500    0.0000 C   0  0  0  0  0  0  0  0  0  0  0  0
    0.3170   -2.0490    0.0000 N   0  0  0  0  0  0  0  0  0  0  0  0
    5.2358    3.1867    0.0000 H   0  0  0  0  0  0  0  0  0  0  0  0
    5.4207    1.0735    0.0000 H   0  0  0  0  0  0  0  0  0  0  0  0
    3.1225    3.0018    0.0000 H   0  0  0  0  0  0  0  0  0  0  0  0
    4.1463   -0.3549    0.0000 H   0  0  0  0  0  0  0  0  0  0  0  0
    1.3172    2.5586    0.0000 H   0  0  0  0  0  0  0  0  0  0  0  0
    1.2518   -1.9453    0.0000 H   0  0  0  0  0  0  0  0  0  0  0  0
    3.0882   -0.3321    0.0000 H   0  0  0  0  0  0  0  0  0  0  0  0
    4.0524   -1.4812    0.0000 H   0  0  0  0  0  0  0  0  0  0  0  0
    1.5810   -2.8899    0.0000 H   0  0  0  0  0  0  0  0  0  0  0  0
    5.0576   -2.6972    0.0000 H   0  0  0  0  0  0  0  0  0  0  0  0
    5.4207   -5.8209    0.0000 H   0  0  0  0  0  0  0  0  0  0  0  0
    1.9421   -4.1042    0.0000 H   0  0  0  0  0  0  0  0  0  0  0  0
   -0.5377   -4.9797    0.0000 H   0  0  0  0  0  0  0  0  0  0  0  0
    0.3588   -6.9023    0.0000 H   0  0  0  0  0  0  0  0  0  0  0  0
    0.9861   -4.4053    0.0000 H   0  0  0  0  0  0  0  0  0  0  0  0
    5.1004   -7.0319    0.0000 H   0  0  0  0  0  0  0  0  0  0  0  0
    4.1862   -5.7846    0.0000 H   0  0  0  0  0  0  0  0  0  0  0  0
    4.5874   -8.4414    0.0000 H   0  0  0  0  0  0  0  0  0  0  0  0
    4.0744   -9.8509    0.0000 H   0  0  0  0  0  0  0  0  0  0  0  0
    1.2553   -8.8249    0.0000 H   0  0  0  0  0  0  0  0  0  0  0  0
    1.6388  -12.1570    0.0000 H   0  0  0  0  0  0  0  0  0  0  0  0
    3.5613  -11.2605    0.0000 H   0  0  0  0  0  0  0  0  0  0  0  0
    0.7423  -10.2344    0.0000 H   0  0  0  0  0  0  0  0  0  0  0  0
    0.4089   -8.0493    0.0000 H   0  0  0  0  0  0  0  0  0  0  0  0
    0.3170    2.0490    0.0000 H   0  0  0  0  0  0  0  0  0  0  0  0
   -2.6962    2.6491    0.0000 H   0  0  0  0  0  0  0  0  0  0  0  0
   -0.7679    2.6491    0.0000 H   0  0  0  0  0  0  0  0  0  0  0  0
   -3.5441    2.1595    0.0000 H   0  0  0  0  0  0  0  0  0  0  0  0
   -4.7688    1.9667    0.0000 H   0  0  0  0  0  0  0  0  0  0  0  0
   -4.4447   -0.7238    0.0000 H   0  0  0  0  0  0  0  0  0  0  0  0
   -7.4627   -0.0314    0.0000 H   0  0  0  0  0  0  0  0  0  0  0  0
   -6.2460    1.7063    0.0000 H   0  0  0  0  0  0  0  0  0  0  0  0
   -5.9070   -1.2689    0.0000 H   0  0  0  0  0  0  0  0  0  0  0  0
   -4.2444   -0.6864    0.0000 H   0  0  0  0  0  0  0  0  0  0  0  0
   -5.0057   -1.8222    0.0000 H   0  0  0  0  0  0  0  0  0  0  0  0
   -2.2076   -2.8406    0.0000 H   0  0  0  0  0  0  0  0  0  0  0  0
   -4.5702   -4.9786    0.0000 H   0  0  0  0  0  0  0  0  0  0  0  0
   -5.4667   -3.0560    0.0000 H   0  0  0  0  0  0  0  0  0  0  0  0
   -2.6476   -4.0821    0.0000 H   0  0  0  0  0  0  0  0  0  0  0  0
   -0.9151   -2.7580    0.0000 H   0  0  0  0  0  0  0  0  0  0  0  0
   -2.5490   -2.7580    0.0000 H   0  0  0  0  0  0  0  0  0  0  0  0
   -0.2691   -3.4298    0.0000 H   0  0  0  0  0  0  0  0  0  0  0  0
    1.8170   -2.0490    0.0000 H   0  0  0  0  0  0  0  0  0  0  0  0
  1  2  1  0
  2  3  2  3
  3  4  1  0
  4  5  1  6
  5  6  1  0
  6  7  1  0
  7  8  1  0
  8  9  1  0
  9 10  1  0
 10 11  1  1
 10 12  1  0
 12 13  1  0
 13 14  1  0
 14 15  1  0
 13 16  1  0
  4 17  1  0
 17 18  1  0
 18 19  1  0
 19 20  1  0
 20 21  1  0
 19 22  1  0
 22 23  1  0
 23 24  1  0
 22 25  1  0
 25 26  1  0
 26 27  1  1
 26  4  1  0
  9  7  1  0
 16 10  1  0
 26 17  1  0
  1 28  1  0
  1 29  1  0
  1 30  1  0
  2 31  1  0
  3 32  1  0
  5 33  1  0
  5 34  1  0
  6 35  1  0
  6 36  1  0
  7 37  1  1
  8 38  1  0
  9 39  1  6
 11 40  1  0
 11 41  1  0
 11 42  1  0
 12 43  1  0
 12 44  1  0
 13 45  1  1
 14 46  1  0
 14 47  1  0
 15 48  1  0
 15 49  1  0
 15 50  1  0
 16 51  1  0
 17 52  1  1
 18 53  1  0
 18 54  1  0
 19 55  1  1
 20 56  1  0
 20 57  1  0
 21 58  1  0
 21 59  1  0
 21 60  1  0
 22 61  1  6
 23 62  1  0
 23 63  1  0
 24 64  1  0
 24 65  1  0
 24 66  1  0
 25 67  1  0
 25 68  1  0
 27 69  1  0
 27 70  1  0
M  END
$$$$
