
     RDKit          2D

 37 37  0  0  0  0  0  0  0  0999 V2000
   -0.7314    2.2294    0.0000 C   0  0  0  0  0  0  0  0  0  0  0  0
    0.3833    3.2331    0.0000 C   0  0  0  0  0  0  0  0  0  0  0  0
    1.4980    4.2368    0.0000 C   0  0  0  0  0  0  0  0  0  0  0  0
    1.3870    2.1184    0.0000 C   0  0  0  0  0  0  0  0  0  0  0  0
    2.3907    1.0037    0.0000 C   0  0  0  0  0  0  0  0  0  0  0  0
    3.3944   -0.1110    0.0000 C   0  0  0  0  0  0  0  0  0  0  0  0
    1.2760    0.0000    0.0000 C   0  0  0  0  0  0  0  0  0  0  0  0
    0.3943    1.2135    0.0000 C   0  0  0  0  0  0  0  0  0  0  0  0
   -1.0323    0.7500    0.0000 C   0  0  0  0  0  0  0  0  0  0  0  0
   -2.5241    0.5932    0.0000 C   0  0  0  0  0  0  0  0  0  0  0  0
   -4.0159    0.4364    0.0000 Cl  0  0  0  0  0  0  0  0  0  0  0  0
   -1.0323   -0.7500    0.0000 C   0  0  0  0  0  0  0  0  0  0  0  0
   -1.3442   -2.2172    0.0000 O   0  0  0  0  0  0  0  0  0  0  0  0
   -2.7707   -2.6807    0.0000 Br  0  0  0  0  0  0  0  0  0  0  0  0
    0.3943   -1.2135    0.0000 C   0  0  0  0  0  0  0  0  0  0  0  0
   -1.8461    1.2257    0.0000 H   0  0  0  0  0  0  0  0  0  0  0  0
   -1.1886    2.8824    0.0000 H   0  0  0  0  0  0  0  0  0  0  0  0
   -1.3331    2.7524    0.0000 H   0  0  0  0  0  0  0  0  0  0  0  0
   -0.6204    4.3478    0.0000 H   0  0  0  0  0  0  0  0  0  0  0  0
    2.6127    5.2405    0.0000 H   0  0  0  0  0  0  0  0  0  0  0  0
    0.4943    5.3515    0.0000 H   0  0  0  0  0  0  0  0  0  0  0  0
    2.6301    3.2528    0.0000 H   0  0  0  0  0  0  0  0  0  0  0  0
    0.0625    1.4143    0.0000 H   0  0  0  0  0  0  0  0  0  0  0  0
    2.6157    2.9787    0.0000 H   0  0  0  0  0  0  0  0  0  0  0  0
    3.5054    2.0074    0.0000 H   0  0  0  0  0  0  0  0  0  0  0  0
    4.3981   -1.2257    0.0000 H   0  0  0  0  0  0  0  0  0  0  0  0
    4.5091    0.8927    0.0000 H   0  0  0  0  0  0  0  0  0  0  0  0
    2.4103   -1.2431    0.0000 H   0  0  0  0  0  0  0  0  0  0  0  0
    2.2600   -1.1321    0.0000 H   0  0  0  0  0  0  0  0  0  0  0  0
   -0.5293    2.3955    0.0000 H   0  0  0  0  0  0  0  0  0  0  0  0
    1.4733    2.2556    0.0000 H   0  0  0  0  0  0  0  0  0  0  0  0
   -1.6899    2.0982    0.0000 H   0  0  0  0  0  0  0  0  0  0  0  0
   -2.6809    2.0850    0.0000 H   0  0  0  0  0  0  0  0  0  0  0  0
   -2.5503   -0.9066    0.0000 H   0  0  0  0  0  0  0  0  0  0  0  0
   -2.5321   -0.7762    0.0000 H   0  0  0  0  0  0  0  0  0  0  0  0
    1.6933   -1.9635    0.0000 H   0  0  0  0  0  0  0  0  0  0  0  0
   -0.2158   -2.5838    0.0000 H   0  0  0  0  0  0  0  0  0  0  0  0
  1  2  1  0
  2  3  1  0
  2  4  1  0
  4  5  1  0
  5  6  1  0
  5  7  1  0
  7  8  1  0
  8  9  1  0
  9 10  1  0
 10 11  1  0
  9 12  1  0
 12 13  1  0
 13 14  1  0
 12 15  1  0
 15  7  1  0
  1 16  1  0
  1 17  1  0
  1 18  1  0
  2 19  1  0
  3 20  1  0
  3 21  1  0
  3 22  1  0
  4 23  1  0
  4 24  1  0
  5 25  1  0
  6 26  1  0
  6 27  1  0
  6 28  1  0
  7 29  1  0
  8 30  1  0
  8 31  1  0
  9 32  1  0
 10 33  1  0
 10 34  1  0
 12 35  1  0
 15 36  1  0
 15 37  1  0
M  END
$$$$
