
     RDKit          2D

 71 76  0  0  0  0  0  0  0  0999 V2000
    5.4149   -2.1212    0.0000 C   0  0  0  0  0  0  0  0  0  0  0  0
    6.3791   -0.9721    0.0000 C   0  0  0  0  0  0  0  0  0  0  0  0
    7.8563   -1.2326    0.0000 C   0  0  0  0  0  0  0  0  0  0  0  0
    9.3335   -1.4930    0.0000 C   0  0  0  0  0  0  0  0  0  0  0  0
   10.8107   -1.7535    0.0000 C   0  0  0  0  0  0  0  0  0  0  0  0
   12.1097   -2.5035    0.0000 C   0  0  0  0  0  0  0  0  0  0  0  0
   10.8107   -3.2535    0.0000 C   0  0  0  0  0  0  0  0  0  0  0  0
    5.8660    0.4374    0.0000 C   0  0  0  0  0  0  0  0  0  0  0  0
    7.2756    0.9505    0.0000 C   0  0  0  0  0  0  0  0  0  0  0  0
    6.7625    2.3600    0.0000 C   0  0  0  0  0  0  0  0  0  0  0  0
    5.3530    1.8470    0.0000 C   0  0  0  0  0  0  0  0  0  0  0  0
    3.9435    1.3340    0.0000 N   0  0  0  0  0  0  0  0  0  0  0  0
    3.6830   -0.1433    0.0000 C   0  0  0  0  0  0  0  0  0  0  0  0
    3.4225   -1.6205    0.0000 C   0  0  0  0  0  0  0  0  0  0  0  0
    2.6725   -2.9195    0.0000 C   0  0  0  0  0  0  0  0  0  0  0  0
    1.9225   -1.6205    0.0000 C   0  0  0  0  0  0  0  0  0  0  0  0
    2.7944    2.2981    0.0000 C   0  0  0  0  0  0  0  0  0  0  0  0
    1.8302    1.1491    0.0000 C   0  0  0  0  0  0  0  0  0  0  0  0
    0.8660    0.0000    0.0000 C   0  0  0  0  0  0  0  0  0  0  0  0
   -0.4330    0.7500    0.0000 C   0  0  0  0  0  0  0  0  0  0  0  0
   -1.9330    0.7500    0.0000 N   0  0  0  0  0  0  0  0  0  0  0  0
   -1.9330   -0.7500    0.0000 C   0  0  0  0  0  0  0  0  0  0  0  0
   -1.9330   -2.2500    0.0000 O   0  0  0  0  0  0  0  0  0  0  0  0
   -0.4330   -0.7500    0.0000 C   0  0  0  0  0  0  0  0  0  0  0  0
    3.7586    3.4472    0.0000 C   0  0  0  0  0  0  0  0  0  0  0  0
    4.7228    4.5963    0.0000 C   0  0  0  0  0  0  0  0  0  0  0  0
    2.6095    4.4114    0.0000 C   0  0  0  0  0  0  0  0  0  0  0  0
    1.8595    5.7104    0.0000 C   0  0  0  0  0  0  0  0  0  0  0  0
    3.3595    5.7104    0.0000 C   0  0  0  0  0  0  0  0  0  0  0  0
    4.0682   -2.2154    0.0000 H   0  0  0  0  0  0  0  0  0  0  0  0
    5.9279   -3.5307    0.0000 H   0  0  0  0  0  0  0  0  0  0  0  0
    7.5958   -2.7098    0.0000 H   0  0  0  0  0  0  0  0  0  0  0  0
    8.0894   -0.4702    0.0000 H   0  0  0  0  0  0  0  0  0  0  0  0
    8.9387   -2.7840    0.0000 H   0  0  0  0  0  0  0  0  0  0  0  0
    9.5939   -0.0158    0.0000 H   0  0  0  0  0  0  0  0  0  0  0  0
   11.3237   -0.3440    0.0000 H   0  0  0  0  0  0  0  0  0  0  0  0
   13.0739   -1.3544    0.0000 H   0  0  0  0  0  0  0  0  0  0  0  0
   13.0739   -3.6526    0.0000 H   0  0  0  0  0  0  0  0  0  0  0  0
   11.3237   -4.6631    0.0000 H   0  0  0  0  0  0  0  0  0  0  0  0
    9.5197   -3.6482    0.0000 H   0  0  0  0  0  0  0  0  0  0  0  0
    4.7340   -0.5467    0.0000 H   0  0  0  0  0  0  0  0  0  0  0  0
    8.6851    1.4635    0.0000 H   0  0  0  0  0  0  0  0  0  0  0  0
    7.7986    0.3489    0.0000 H   0  0  0  0  0  0  0  0  0  0  0  0
    6.4251    3.8216    0.0000 H   0  0  0  0  0  0  0  0  0  0  0  0
    8.1721    2.8730    0.0000 H   0  0  0  0  0  0  0  0  0  0  0  0
    5.0156    3.3085    0.0000 H   0  0  0  0  0  0  0  0  0  0  0  0
    2.2058    0.1172    0.0000 H   0  0  0  0  0  0  0  0  0  0  0  0
    5.1174   -0.5819    0.0000 H   0  0  0  0  0  0  0  0  0  0  0  0
    4.6660   -2.4593    0.0000 H   0  0  0  0  0  0  0  0  0  0  0  0
    3.8216   -3.8837    0.0000 H   0  0  0  0  0  0  0  0  0  0  0  0
    1.5234   -3.8837    0.0000 H   0  0  0  0  0  0  0  0  0  0  0  0
    0.5860   -2.3015    0.0000 H   0  0  0  0  0  0  0  0  0  0  0  0
    1.4839   -0.1860    0.0000 H   0  0  0  0  0  0  0  0  0  0  0  0
    1.5364    3.1151    0.0000 H   0  0  0  0  0  0  0  0  0  0  0  0
    0.8072    2.2461    0.0000 H   0  0  0  0  0  0  0  0  0  0  0  0
    2.5573   -0.1629    0.0000 H   0  0  0  0  0  0  0  0  0  0  0  0
    1.5235   -1.3482    0.0000 H   0  0  0  0  0  0  0  0  0  0  0  0
   -0.2243    2.2354    0.0000 H   0  0  0  0  0  0  0  0  0  0  0  0
   -2.9937    1.8107    0.0000 H   0  0  0  0  0  0  0  0  0  0  0  0
   -3.4330   -0.7500    0.0000 H   0  0  0  0  0  0  0  0  0  0  0  0
   -3.2321   -3.0000    0.0000 H   0  0  0  0  0  0  0  0  0  0  0  0
   -0.2243   -2.2354    0.0000 H   0  0  0  0  0  0  0  0  0  0  0  0
    5.1769    2.9590    0.0000 H   0  0  0  0  0  0  0  0  0  0  0  0
    5.6869    5.7453    0.0000 H   0  0  0  0  0  0  0  0  0  0  0  0
    5.9808    3.7793    0.0000 H   0  0  0  0  0  0  0  0  0  0  0  0
    3.8411    5.8098    0.0000 H   0  0  0  0  0  0  0  0  0  0  0  0
    1.3515    3.5945    0.0000 H   0  0  0  0  0  0  0  0  0  0  0  0
    0.4500    5.1974    0.0000 H   0  0  0  0  0  0  0  0  0  0  0  0
    1.5990    7.1876    0.0000 H   0  0  0  0  0  0  0  0  0  0  0  0
    3.6200    7.1876    0.0000 H   0  0  0  0  0  0  0  0  0  0  0  0
    4.8513    5.5537    0.0000 H   0  0  0  0  0  0  0  0  0  0  0  0
  1  2  2  3
  2  3  1  0
  3  4  1  0
  4  5  1  0
  5  6  1  0
  6  7  1  0
  2  8  1  0
  8  9  1  0
  9 10  1  0
 10 11  1  0
 11 12  1  0
 12 13  1  0
 13 14  1  0
 14 15  1  0
 15 16  1  0
 12 17  1  0
 17 18  1  0
 18 19  1  0
 19 20  1  0
 20 21  1  0
 21 22  1  0
 22 23  1  0
 22 24  1  0
 17 25  1  0
 25 26  1  0
 25 27  1  0
 27 28  1  0
 28 29  1  0
  7  5  1  0
 11  8  1  0
 16 14  1  0
 24 19  1  0
 29 27  1  0
 24 20  1  0
  1 30  1  0
  1 31  1  0
  3 32  1  0
  3 33  1  0
  4 34  1  0
  4 35  1  0
  5 36  1  0
  6 37  1  0
  6 38  1  0
  7 39  1  0
  7 40  1  0
  8 41  1  0
  9 42  1  0
  9 43  1  0
 10 44  1  0
 10 45  1  0
 11 46  1  0
 13 47  1  0
 13 48  1  0
 14 49  1  0
 15 50  1  0
 15 51  1  0
 16 52  1  0
 16 53  1  0
 17 54  1  0
 18 55  1  0
 18 56  1  0
 19 57  1  0
 20 58  1  0
 21 59  1  0
 22 60  1  0
 23 61  1  0
 24 62  1  0
 25 63  1  0
 26 64  1  0
 26 65  1  0
 26 66  1  0
 27 67  1  0
 28 68  1  0
 28 69  1  0
 29 70  1  0
 29 71  1  0
M  END
$$$$
