
     RDKit          2D

 98107  0  0  0  0  0  0  0  0999 V2000
   -7.2979    3.1505    0.0000 C   0  0  0  0  0  0  0  0  0  0  0  0
   -7.7091    4.5931    0.0000 C   0  0  0  0  0  0  0  0  0  0  0  0
   -6.6654    5.6704    0.0000 C   0  0  0  0  0  0  0  0  0  0  0  0
   -5.6217    6.7478    0.0000 C   0  0  0  0  0  0  0  0  0  0  0  0
   -6.6991    7.7915    0.0000 C   0  0  0  0  0  0  0  0  0  0  0  0
   -4.5780    7.8251    0.0000 C   0  0  0  0  0  0  0  0  0  0  0  0
   -3.5343    8.9025    0.0000 C   0  0  0  0  0  0  0  0  0  0  0  0
   -2.4906    9.9798    0.0000 C   0  0  0  0  0  0  0  0  0  0  0  0
   -4.6117    9.9462    0.0000 C   0  0  0  0  0  0  0  0  0  0  0  0
   -2.4570    7.8588    0.0000 C   0  0  0  0  0  0  0  0  0  0  0  0
   -3.5007    6.7814    0.0000 C   0  0  0  0  0  0  0  0  0  0  0  0
   -2.4233    5.7377    0.0000 C   0  0  0  0  0  0  0  0  0  0  0  0
   -4.5444    5.7041    0.0000 C   0  0  0  0  0  0  0  0  0  0  0  0
   -3.7738    4.4171    0.0000 C   0  0  0  0  0  0  0  0  0  0  0  0
   -5.2737    4.3933    0.0000 C   0  0  0  0  0  0  0  0  0  0  0  0
   -5.5107    2.9121    0.0000 C   0  0  0  0  0  0  0  0  0  0  0  0
   -4.0932    2.4215    0.0000 C   0  0  0  0  0  0  0  0  0  0  0  0
   -2.6084    2.6350    0.0000 C   0  0  0  0  0  0  0  0  0  0  0  0
   -1.9030    1.3112    0.0000 C   0  0  0  0  0  0  0  0  0  0  0  0
   -2.4982   -0.0657    0.0000 C   0  0  0  0  0  0  0  0  0  0  0  0
   -3.9457   -0.4588    0.0000 C   0  0  0  0  0  0  0  0  0  0  0  0
   -3.0828   -0.8083    0.0000 C   0  0  0  0  0  0  0  0  0  0  0  0
   -2.7416   -1.7709    0.0000 C   0  0  0  0  0  0  0  0  0  0  0  0
   -2.0910   -3.1225    0.0000 C   0  0  0  0  0  0  0  0  0  0  0  0
   -1.4404   -4.4741    0.0000 C   0  0  0  0  0  0  0  0  0  0  0  0
   -3.4426   -3.7731    0.0000 C   0  0  0  0  0  0  0  0  0  0  0  0
   -4.0932   -2.4215    0.0000 C   0  0  0  0  0  0  0  0  0  0  0  0
   -2.6084   -2.6350    0.0000 C   0  0  0  0  0  0  0  0  0  0  0  0
   -1.2440   -2.0119    0.0000 C   0  0  0  0  0  0  0  0  0  0  0  0
    0.0760   -2.7245    0.0000 C   0  0  0  0  0  0  0  0  0  0  0  0
    1.1616   -1.6894    0.0000 C   0  0  0  0  0  0  0  0  0  0  0  0
    0.8660    0.0000    0.0000 C   0  0  0  0  0  0  0  0  0  0  0  0
   -0.4330    0.7500    0.0000 C   0  0  0  0  0  0  0  0  0  0  0  0
   -1.2440    2.0119    0.0000 C   0  0  0  0  0  0  0  0  0  0  0  0
   -0.4330   -0.7500    0.0000 C   0  0  0  0  0  0  0  0  0  0  0  0
   -5.2268   -1.4392    0.0000 C   0  0  0  0  0  0  0  0  0  0  0  0
   -5.6494    0.0000    0.0000 C   0  0  0  0  0  0  0  0  0  0  0  0
   -5.2268    1.4392    0.0000 C   0  0  0  0  0  0  0  0  0  0  0  0
   -6.7251    1.5106    0.0000 C   0  0  0  0  0  0  0  0  0  0  0  0
   -7.4124    2.8439    0.0000 C   0  0  0  0  0  0  0  0  0  0  0  0
   -8.3416    2.0732    0.0000 H   0  0  0  0  0  0  0  0  0  0  0  0
   -5.9747    2.4441    0.0000 H   0  0  0  0  0  0  0  0  0  0  0  0
   -9.1640    4.9582    0.0000 H   0  0  0  0  0  0  0  0  0  0  0  0
   -5.8726    4.3970    0.0000 H   0  0  0  0  0  0  0  0  0  0  0  0
   -7.8620    6.5750    0.0000 H   0  0  0  0  0  0  0  0  0  0  0  0
   -7.7764    8.8352    0.0000 H   0  0  0  0  0  0  0  0  0  0  0  0
   -5.6554    8.8688    0.0000 H   0  0  0  0  0  0  0  0  0  0  0  0
   -7.8663    6.8494    0.0000 H   0  0  0  0  0  0  0  0  0  0  0  0
   -5.6554    8.8688    0.0000 H   0  0  0  0  0  0  0  0  0  0  0  0
   -1.4469   11.0572    0.0000 H   0  0  0  0  0  0  0  0  0  0  0  0
   -3.4327   11.1471    0.0000 H   0  0  0  0  0  0  0  0  0  0  0  0
   -1.2941    9.0752    0.0000 H   0  0  0  0  0  0  0  0  0  0  0  0
   -5.6890   10.9899    0.0000 H   0  0  0  0  0  0  0  0  0  0  0  0
   -3.7071   11.1427    0.0000 H   0  0  0  0  0  0  0  0  0  0  0  0
   -5.6554    8.8688    0.0000 H   0  0  0  0  0  0  0  0  0  0  0  0
   -1.2604    6.9542    0.0000 H   0  0  0  0  0  0  0  0  0  0  0  0
   -1.2897    8.8009    0.0000 H   0  0  0  0  0  0  0  0  0  0  0  0
   -1.3459    4.6940    0.0000 H   0  0  0  0  0  0  0  0  0  0  0  0
   -1.2561    6.6798    0.0000 H   0  0  0  0  0  0  0  0  0  0  0  0
   -3.3279    4.5412    0.0000 H   0  0  0  0  0  0  0  0  0  0  0  0
   -2.3178    4.7776    0.0000 H   0  0  0  0  0  0  0  0  0  0  0  0
   -3.4900    2.9442    0.0000 H   0  0  0  0  0  0  0  0  0  0  0  0
   -6.7404    4.7074    0.0000 H   0  0  0  0  0  0  0  0  0  0  0  0
   -7.0105    2.8883    0.0000 H   0  0  0  0  0  0  0  0  0  0  0  0
   -3.7696    3.8862    0.0000 H   0  0  0  0  0  0  0  0  0  0  0  0
   -2.2156    4.0826    0.0000 H   0  0  0  0  0  0  0  0  0  0  0  0
   -0.5654    1.9900    0.0000 H   0  0  0  0  0  0  0  0  0  0  0  0
   -0.8102    0.2837    0.0000 H   0  0  0  0  0  0  0  0  0  0  0  0
   -1.1335   -0.6882    0.0000 H   0  0  0  0  0  0  0  0  0  0  0  0
   -2.0762   -1.5051    0.0000 H   0  0  0  0  0  0  0  0  0  0  0  0
   -3.8546   -1.9560    0.0000 H   0  0  0  0  0  0  0  0  0  0  0  0
   -1.1293   -0.2828    0.0000 H   0  0  0  0  0  0  0  0  0  0  0  0
   -2.3612    1.2007    0.0000 H   0  0  0  0  0  0  0  0  0  0  0  0
   -1.3126   -1.3147    0.0000 H   0  0  0  0  0  0  0  0  0  0  0  0
   -0.5960   -2.9996    0.0000 H   0  0  0  0  0  0  0  0  0  0  0  0
   -0.7898   -5.8256    0.0000 H   0  0  0  0  0  0  0  0  0  0  0  0
   -2.7026   -5.2846    0.0000 H   0  0  0  0  0  0  0  0  0  0  0  0
    0.0284   -4.1698    0.0000 H   0  0  0  0  0  0  0  0  0  0  0  0
   -4.7941   -4.4237    0.0000 H   0  0  0  0  0  0  0  0  0  0  0  0
   -2.9616   -5.1939    0.0000 H   0  0  0  0  0  0  0  0  0  0  0  0
   -2.9527   -4.0950    0.0000 H   0  0  0  0  0  0  0  0  0  0  0  0
   -2.3834   -4.1180    0.0000 H   0  0  0  0  0  0  0  0  0  0  0  0
    0.1556   -2.5515    0.0000 H   0  0  0  0  0  0  0  0  0  0  0  0
   -0.4459   -4.1308    0.0000 H   0  0  0  0  0  0  0  0  0  0  0  0
    1.2189   -3.6959    0.0000 H   0  0  0  0  0  0  0  0  0  0  0  0
    2.0775   -2.8772    0.0000 H   0  0  0  0  0  0  0  0  0  0  0  0
    2.5250   -1.0641    0.0000 H   0  0  0  0  0  0  0  0  0  0  0  0
    2.3548    0.1828    0.0000 H   0  0  0  0  0  0  0  0  0  0  0  0
    0.7267    1.7013    0.0000 H   0  0  0  0  0  0  0  0  0  0  0  0
    0.1598    2.5406    0.0000 H   0  0  0  0  0  0  0  0  0  0  0  0
   -1.1014    3.5051    0.0000 H   0  0  0  0  0  0  0  0  0  0  0  0
    0.3087   -2.0538    0.0000 H   0  0  0  0  0  0  0  0  0  0  0  0
   -6.7251   -1.3679    0.0000 H   0  0  0  0  0  0  0  0  0  0  0  0
   -5.7843   -2.8318    0.0000 H   0  0  0  0  0  0  0  0  0  0  0  0
   -7.1382   -0.1828    0.0000 H   0  0  0  0  0  0  0  0  0  0  0  0
   -7.6838    0.3570    0.0000 H   0  0  0  0  0  0  0  0  0  0  0  0
   -8.9107    2.9152    0.0000 H   0  0  0  0  0  0  0  0  0  0  0  0
   -6.7613    4.1952    0.0000 H   0  0  0  0  0  0  0  0  0  0  0  0
  1  2  2  3
  2  3  1  0
  3  4  1  0
  4  5  1  0
  4  6  1  0
  6  7  1  0
  7  8  1  0
  7  9  1  0
  7 10  1  0
 10 11  1  0
 11 12  1  0
 11 13  1  0
 13 14  1  0
 14 15  1  0
 15 16  1  0
 16 17  1  0
 17 18  1  0
 18 19  1  0
 19 20  1  0
 20 21  1  0
 21 22  1  0
 22 23  1  0
 23 24  1  0
 24 25  1  0
 24 26  1  0
 26 27  1  0
 27 28  1  0
 28 29  1  0
 29 30  1  0
 30 31  1  0
 31 32  1  0
 32 33  1  0
 33 34  1  0
 33 35  1  0
 27 36  1  0
 36 37  1  0
 37 38  1  0
 38 39  1  0
 39 40  2  3
 13  4  1  0
 38 16  1  0
 11  6  1  0
 15 13  1  0
 38 17  1  0
 34 18  1  0
 37 21  1  0
 27 23  1  0
 35 29  1  0
 35 32  1  0
  1 41  1  0
  1 42  1  0
  2 43  1  0
  3 44  1  0
  3 45  1  0
  5 46  1  0
  5 47  1  0
  5 48  1  0
  6 49  1  0
  8 50  1  0
  8 51  1  0
  8 52  1  0
  9 53  1  0
  9 54  1  0
  9 55  1  0
 10 56  1  0
 10 57  1  0
 12 58  1  0
 12 59  1  0
 12 60  1  0
 14 61  1  0
 14 62  1  0
 15 63  1  0
 16 64  1  0
 17 65  1  0
 18 66  1  0
 19 67  1  0
 19 68  1  0
 20 69  1  0
 20 70  1  0
 21 71  1  0
 22 72  1  0
 22 73  1  0
 23 74  1  0
 24 75  1  0
 25 76  1  0
 25 77  1  0
 25 78  1  0
 26 79  1  0
 26 80  1  0
 28 81  1  0
 28 82  1  0
 29 83  1  0
 30 84  1  0
 30 85  1  0
 31 86  1  0
 31 87  1  0
 32 88  1  0
 33 89  1  0
 34 90  1  0
 34 91  1  0
 35 92  1  0
 36 93  1  0
 36 94  1  0
 37 95  1  0
 39 96  1  0
 40 97  1  0
 40 98  1  0
M  END
$$$$
