
     RDKit          2D

 60 62  0  0  0  0  0  0  0  0999 V2000
    2.5607   -0.0000    0.0000 C   0  0  0  0  0  0  0  0  0  0  0  0
    1.0607   -0.0000    0.0000 C   0  0  0  0  0  0  0  0  0  0  0  0
   -0.0000   -1.0607    0.0000 N   0  0  0  0  0  2  0  0  0  0  0  0
   -1.0607   -0.0000    0.0000 C   0  0  0  0  0  0  0  0  0  0  0  0
   -1.7416   -1.3365    0.0000 N   0  0  0  0  0  2  0  0  0  0  0  0
   -3.0782   -0.6555    0.0000 C   0  0  0  0  0  0  0  0  0  0  0  0
   -2.3972    0.6810    0.0000 C   0  0  0  0  0  0  0  0  0  0  0  0
   -2.1625    2.1625    0.0000 C   0  0  0  0  0  0  0  0  0  0  0  0
   -3.6605    2.2410    0.0000 C   0  0  0  0  0  0  0  0  0  0  0  0
   -5.1584    2.3195    0.0000 C   0  0  0  0  0  0  0  0  0  0  0  0
   -6.6564    2.3980    0.0000 N   0  0  0  0  0  0  0  0  0  0  0  0
   -7.3373    3.7345    0.0000 C   0  0  0  0  0  0  0  0  0  0  0  0
   -8.0183    5.0710    0.0000 C   0  0  0  0  0  0  0  0  0  0  0  0
   -8.6993    6.4076    0.0000 C   0  0  0  0  0  0  0  0  0  0  0  0
   -9.3803    7.7441    0.0000 N   0  0  0  0  0  0  0  0  0  0  0  0
   -8.5633    9.0021    0.0000 C   0  0  0  0  0  0  0  0  0  0  0  0
   -7.3053    8.1851    0.0000 O   0  0  0  0  0  0  0  0  0  0  0  0
   -5.9688    8.8661    0.0000 C   0  0  0  0  0  0  0  0  0  0  0  0
   -7.7464   10.2601    0.0000 C   0  0  0  0  0  0  0  0  0  0  0  0
   -6.9294   11.5181    0.0000 C   0  0  0  0  0  0  0  0  0  0  0  0
   -9.0044   11.0770    0.0000 C   0  0  0  0  0  0  0  0  0  0  0  0
  -10.2624   11.8940    0.0000 N   0  0  0  0  0  0  0  0  0  0  0  0
  -10.1839   13.3919    0.0000 C   0  0  0  0  0  0  0  0  0  0  0  0
   -0.6810    2.3972    0.0000 C   0  0  0  0  0  0  0  0  0  0  0  0
   -0.0000    1.0607    0.0000 C   0  0  0  0  0  0  0  0  0  0  0  0
    3.3107   -1.2990    0.0000 H   0  0  0  0  0  0  0  0  0  0  0  0
    3.3107    1.2990    0.0000 H   0  0  0  0  0  0  0  0  0  0  0  0
   -4.2810   -0.0426    0.0000 H   0  0  0  0  0  0  0  0  0  0  0  0
   -3.7591   -1.9920    0.0000 H   0  0  0  0  0  0  0  0  0  0  0  0
   -3.2666    0.8500    0.0000 H   0  0  0  0  0  0  0  0  0  0  0  0
   -2.2410    3.6605    0.0000 H   0  0  0  0  0  0  0  0  0  0  0  0
   -3.5820    3.7390    0.0000 H   0  0  0  0  0  0  0  0  0  0  0  0
   -3.7989    1.4560    0.0000 H   0  0  0  0  0  0  0  0  0  0  0  0
   -5.0799    3.8175    0.0000 H   0  0  0  0  0  0  0  0  0  0  0  0
   -5.2369    0.8216    0.0000 H   0  0  0  0  0  0  0  0  0  0  0  0
   -7.4733    1.1400    0.0000 H   0  0  0  0  0  0  0  0  0  0  0  0
   -6.0008    4.4155    0.0000 H   0  0  0  0  0  0  0  0  0  0  0  0
   -8.6738    3.0536    0.0000 H   0  0  0  0  0  0  0  0  0  0  0  0
   -6.6818    5.7520    0.0000 H   0  0  0  0  0  0  0  0  0  0  0  0
   -9.3548    4.3901    0.0000 H   0  0  0  0  0  0  0  0  0  0  0  0
  -10.0358    5.7266    0.0000 H   0  0  0  0  0  0  0  0  0  0  0  0
   -7.3628    7.0885    0.0000 H   0  0  0  0  0  0  0  0  0  0  0  0
  -10.8782    7.8226    0.0000 H   0  0  0  0  0  0  0  0  0  0  0  0
   -9.9115    9.6596    0.0000 H   0  0  0  0  0  0  0  0  0  0  0  0
   -4.6323    9.5471    0.0000 H   0  0  0  0  0  0  0  0  0  0  0  0
   -5.2878    7.5296    0.0000 H   0  0  0  0  0  0  0  0  0  0  0  0
   -6.4818   10.2757    0.0000 H   0  0  0  0  0  0  0  0  0  0  0  0
   -6.2791    9.9483    0.0000 H   0  0  0  0  0  0  0  0  0  0  0  0
   -6.1125   12.7761    0.0000 H   0  0  0  0  0  0  0  0  0  0  0  0
   -5.6714   10.7011    0.0000 H   0  0  0  0  0  0  0  0  0  0  0  0
   -8.0785   12.4823    0.0000 H   0  0  0  0  0  0  0  0  0  0  0  0
   -8.3469   12.4252    0.0000 H   0  0  0  0  0  0  0  0  0  0  0  0
   -9.9686    9.9280    0.0000 H   0  0  0  0  0  0  0  0  0  0  0  0
  -11.5989   11.2130    0.0000 H   0  0  0  0  0  0  0  0  0  0  0  0
  -10.1054   14.8899    0.0000 H   0  0  0  0  0  0  0  0  0  0  0  0
  -11.6818   13.4704    0.0000 H   0  0  0  0  0  0  0  0  0  0  0  0
   -8.6859   13.3134    0.0000 H   0  0  0  0  0  0  0  0  0  0  0  0
   -1.0692    3.8461    0.0000 H   0  0  0  0  0  0  0  0  0  0  0  0
    0.7194    2.9347    0.0000 H   0  0  0  0  0  0  0  0  0  0  0  0
    1.2135    1.9423    0.0000 H   0  0  0  0  0  0  0  0  0  0  0  0
  1  2  2  3
  2  3  1  0
  3  4  1  0
  4  5  1  0
  5  6  1  0
  6  7  1  0
  7  8  1  0
  8  9  1  0
  9 10  1  0
 10 11  1  0
 11 12  1  0
 12 13  1  0
 13 14  1  0
 14 15  1  0
 15 16  1  0
 16 17  1  0
 17 18  1  0
 16 19  1  0
 19 20  1  0
 19 21  1  0
 21 22  1  0
 22 23  1  0
  8 24  1  0
 24 25  1  0
 25  2  1  0
  7  4  1  0
 25  4  1  0
  1 26  1  0
  1 27  1  0
  6 28  1  0
  6 29  1  0
  7 30  1  0
  8 31  1  0
  9 32  1  0
  9 33  1  0
 10 34  1  0
 10 35  1  0
 11 36  1  0
 12 37  1  0
 12 38  1  0
 13 39  1  0
 13 40  1  0
 14 41  1  0
 14 42  1  0
 15 43  1  0
 16 44  1  0
 18 45  1  0
 18 46  1  0
 18 47  1  0
 19 48  1  0
 20 49  1  0
 20 50  1  0
 20 51  1  0
 21 52  1  0
 21 53  1  0
 22 54  1  0
 23 55  1  0
 23 56  1  0
 23 57  1  0
 24 58  1  0
 24 59  1  0
 25 60  1  0
M  RAD  2   3   2   5   2
M  END
$$$$
