
     RDKit          2D

 46 47  0  0  0  0  0  0  0  0999 V2000
    1.8302    1.1491    0.0000 C   0  0  0  0  0  0  0  0  0  0  0  0
    0.8660    0.0000    0.0000 C   0  0  0  0  0  0  0  0  0  0  0  0
   -0.4330    0.7500    0.0000 C   0  0  0  0  0  0  0  0  0  0  0  0
   -0.4330   -0.7500    0.0000 C   0  0  0  0  0  0  0  0  0  0  0  0
    0.0800   -2.1595    0.0000 C   0  0  0  0  0  0  0  0  0  0  0  0
    0.5930   -3.5691    0.0000 C   0  0  0  0  0  0  0  0  0  0  0  0
    2.0703   -3.8296    0.0000 O   0  0  0  0  0  0  0  0  0  0  0  0
   -0.3711   -4.7181    0.0000 C   0  0  0  0  0  0  0  0  0  0  0  0
   -1.3353   -5.8672    0.0000 C   0  0  0  0  0  0  0  0  0  0  0  0
   -2.2995   -7.0163    0.0000 C   0  0  0  0  0  0  0  0  0  0  0  0
   -2.8125   -8.4258    0.0000 N   0  0  0  0  0  0  0  0  0  0  0  0
   -1.3353   -8.1653    0.0000 C   0  0  0  0  0  0  0  0  0  0  0  0
   -0.8223   -9.5749    0.0000 C   0  0  0  0  0  0  0  0  0  0  0  0
    0.5873   -9.0619    0.0000 O   0  0  0  0  0  0  0  0  0  0  0  0
   -0.3093  -10.9844    0.0000 C   0  0  0  0  0  0  0  0  0  0  0  0
    0.2038  -12.3940    0.0000 C   0  0  0  0  0  0  0  0  0  0  0  0
   -1.2058  -12.9070    0.0000 O   0  0  0  0  0  0  0  0  0  0  0  0
    0.7168  -13.8035    0.0000 C   0  0  0  0  0  0  0  0  0  0  0  0
    1.2298  -15.2130    0.0000 O   0  0  0  0  0  0  0  0  0  0  0  0
    0.2657  -16.3621    0.0000 C   0  0  0  0  0  0  0  0  0  0  0  0
    0.7787  -17.7716    0.0000 O   0  0  0  0  0  0  0  0  0  0  0  0
   -1.2116  -16.1016    0.0000 Br  0  0  0  0  0  0  0  0  0  0  0  0
    2.7944    2.2981    0.0000 H   0  0  0  0  0  0  0  0  0  0  0  0
    0.9095    2.1364    0.0000 H   0  0  0  0  0  0  0  0  0  0  0  0
    2.9793    0.1849    0.0000 H   0  0  0  0  0  0  0  0  0  0  0  0
    1.8534   -0.9207    0.0000 H   0  0  0  0  0  0  0  0  0  0  0  0
   -1.9102    1.0105    0.0000 H   0  0  0  0  0  0  0  0  0  0  0  0
   -0.1294    2.0654    0.0000 H   0  0  0  0  0  0  0  0  0  0  0  0
   -1.9102   -1.0105    0.0000 H   0  0  0  0  0  0  0  0  0  0  0  0
    1.3954   -1.8559    0.0000 H   0  0  0  0  0  0  0  0  0  0  0  0
   -1.3295   -2.6726    0.0000 H   0  0  0  0  0  0  0  0  0  0  0  0
    0.7779   -5.6823    0.0000 H   0  0  0  0  0  0  0  0  0  0  0  0
   -1.5202   -3.7540    0.0000 H   0  0  0  0  0  0  0  0  0  0  0  0
   -2.4844   -4.9030    0.0000 H   0  0  0  0  0  0  0  0  0  0  0  0
   -0.2031   -6.6024    0.0000 H   0  0  0  0  0  0  0  0  0  0  0  0
   -3.5985   -6.2663    0.0000 H   0  0  0  0  0  0  0  0  0  0  0  0
   -3.9616   -9.3900    0.0000 H   0  0  0  0  0  0  0  0  0  0  0  0
   -0.0926   -7.6379    0.0000 H   0  0  0  0  0  0  0  0  0  0  0  0
   -2.2318  -10.0879    0.0000 H   0  0  0  0  0  0  0  0  0  0  0  0
    1.8453   -9.8788    0.0000 H   0  0  0  0  0  0  0  0  0  0  0  0
   -1.7188  -11.4975    0.0000 H   0  0  0  0  0  0  0  0  0  0  0  0
    1.1523  -10.6470    0.0000 H   0  0  0  0  0  0  0  0  0  0  0  0
    1.6133  -11.8809    0.0000 H   0  0  0  0  0  0  0  0  0  0  0  0
   -1.6444  -14.3414    0.0000 H   0  0  0  0  0  0  0  0  0  0  0  0
    2.1263  -13.2905    0.0000 H   0  0  0  0  0  0  0  0  0  0  0  0
   -0.6197  -14.4845    0.0000 H   0  0  0  0  0  0  0  0  0  0  0  0
  1  2  1  0
  2  3  1  0
  3  4  1  0
  4  5  1  0
  5  6  1  0
  6  7  2  0
  6  8  1  0
  8  9  1  0
  9 10  1  0
 10 11  1  0
 11 12  1  0
 12 13  1  0
 13 14  1  0
 13 15  1  0
 15 16  1  0
 16 17  1  0
 16 18  1  0
 18 19  1  0
 19 20  1  0
 20 21  2  0
 20 22  1  0
  4  2  1  0
 12 10  1  0
  1 23  1  0
  1 24  1  0
  1 25  1  0
  2 26  1  0
  3 27  1  0
  3 28  1  0
  4 29  1  0
  5 30  1  0
  5 31  1  0
  8 32  1  0
  8 33  1  0
  9 34  1  0
  9 35  1  0
 10 36  1  0
 11 37  1  0
 12 38  1  0
 13 39  1  0
 14 40  1  0
 15 41  1  0
 15 42  1  0
 16 43  1  0
 17 44  1  0
 18 45  1  0
 18 46  1  0
M  END
$$$$
