
     RDKit          2D

 42 44  0  0  0  0  0  0  0  0999 V2000
   -0.0866    5.2402    0.0000 C   0  0  0  0  0  0  0  0  0  0  0  0
    1.3230    5.7532    0.0000 C   0  0  0  0  0  0  0  0  0  0  0  0
    2.7325    6.2663    0.0000 C   0  0  0  0  0  0  0  0  0  0  0  0
    4.1420    6.7793    0.0000 C   0  0  0  0  0  0  0  0  0  0  0  0
    5.5516    7.2923    0.0000 C   0  0  0  0  0  0  0  0  0  0  0  0
    6.7007    8.2565    0.0000 C   0  0  0  0  0  0  0  0  0  0  0  0
    5.2911    8.7695    0.0000 C   0  0  0  0  0  0  0  0  0  0  0  0
    3.2455    4.8567    0.0000 C   0  0  0  0  0  0  0  0  0  0  0  0
    2.4564    4.4546    0.0000 S   0  0  0  0  0  1  0  0  0  0  0  0
    3.7586    3.4472    0.0000 N   0  0  0  0  0  2  0  0  0  0  0  0
    2.7944    2.2981    0.0000 C   0  0  0  0  0  0  0  0  0  0  0  0
    1.8302    1.1491    0.0000 C   0  0  0  0  0  0  0  0  0  0  0  0
    0.8660    0.0000    0.0000 C   0  0  0  0  0  0  0  0  0  0  0  0
   -0.4330    0.7500    0.0000 C   0  0  0  0  0  0  0  0  0  0  0  0
   -1.9330    0.7500    0.0000 C   0  0  0  0  0  0  0  0  0  0  0  0
   -1.9330   -0.7500    0.0000 C   0  0  0  0  0  0  0  0  0  0  0  0
   -0.4330   -0.7500    0.0000 C   0  0  0  0  0  0  0  0  0  0  0  0
   -1.4961    4.7272    0.0000 H   0  0  0  0  0  0  0  0  0  0  0  0
    0.4265    3.8307    0.0000 H   0  0  0  0  0  0  0  0  0  0  0  0
   -0.5996    6.6498    0.0000 H   0  0  0  0  0  0  0  0  0  0  0  0
    1.5222    4.8902    0.0000 H   0  0  0  0  0  0  0  0  0  0  0  0
    0.8099    7.1628    0.0000 H   0  0  0  0  0  0  0  0  0  0  0  0
    2.2195    7.6758    0.0000 H   0  0  0  0  0  0  0  0  0  0  0  0
    3.5291    7.9822    0.0000 H   0  0  0  0  0  0  0  0  0  0  0  0
    4.5442    5.9901    0.0000 H   0  0  0  0  0  0  0  0  0  0  0  0
    6.3016    5.9933    0.0000 H   0  0  0  0  0  0  0  0  0  0  0  0
    7.8497    7.2923    0.0000 H   0  0  0  0  0  0  0  0  0  0  0  0
    7.4507    9.5556    0.0000 H   0  0  0  0  0  0  0  0  0  0  0  0
    5.5516   10.2468    0.0000 H   0  0  0  0  0  0  0  0  0  0  0  0
    3.9512    8.9341    0.0000 H   0  0  0  0  0  0  0  0  0  0  0  0
    4.1086    5.0560    0.0000 H   0  0  0  0  0  0  0  0  0  0  0  0
    3.9435    1.3340    0.0000 H   0  0  0  0  0  0  0  0  0  0  0  0
    1.6453    3.2623    0.0000 H   0  0  0  0  0  0  0  0  0  0  0  0
    0.8072    2.2461    0.0000 H   0  0  0  0  0  0  0  0  0  0  0  0
    2.9793    0.1849    0.0000 H   0  0  0  0  0  0  0  0  0  0  0  0
    1.8302   -1.1491    0.0000 H   0  0  0  0  0  0  0  0  0  0  0  0
   -0.2243    2.2354    0.0000 H   0  0  0  0  0  0  0  0  0  0  0  0
   -3.4330    0.7500    0.0000 H   0  0  0  0  0  0  0  0  0  0  0  0
   -1.9330    2.2500    0.0000 H   0  0  0  0  0  0  0  0  0  0  0  0
   -1.9330   -2.2500    0.0000 H   0  0  0  0  0  0  0  0  0  0  0  0
   -3.4330   -0.7500    0.0000 H   0  0  0  0  0  0  0  0  0  0  0  0
   -0.0448   -2.1989    0.0000 H   0  0  0  0  0  0  0  0  0  0  0  0
  1  2  1  0
  2  3  1  0
  3  4  1  0
  4  5  1  0
  5  6  1  0
  6  7  1  0
  3  8  1  0
  8  9  1  0
  8 10  1  0
 10 11  1  0
 11 12  1  0
 12 13  1  0
 13 14  1  0
 14 15  1  0
 15 16  1  0
 16 17  1  0
  7  5  1  0
 17 13  1  0
 17 14  1  0
  1 18  1  0
  1 19  1  0
  1 20  1  0
  2 21  1  0
  2 22  1  0
  3 23  1  0
  4 24  1  0
  4 25  1  0
  5 26  1  0
  6 27  1  0
  6 28  1  0
  7 29  1  0
  7 30  1  0
  8 31  1  0
 11 32  1  0
 11 33  1  0
 12 34  1  0
 12 35  1  0
 13 36  1  0
 14 37  1  0
 15 38  1  0
 15 39  1  0
 16 40  1  0
 16 41  1  0
 17 42  1  0
M  RAD  2   9   2  10   2
M  END
$$$$
