
     RDKit          2D

 30 36  0  0  0  0  0  0  0  0999 V2000
    3.7586    3.4472    0.0000 N   0  0  0  0  0  0  0  0  0  0  0  0
    2.7944    2.2981    0.0000 C   0  0  0  0  0  0  0  0  0  0  0  0
    1.8302    1.1491    0.0000 C   0  0  0  0  0  0  0  0  0  0  0  0
    0.8660    0.0000    0.0000 C   0  0  0  0  0  0  0  0  0  0  0  0
   -0.4330    0.7500    0.0000 C   0  0  0  0  0  0  0  0  0  0  0  0
   -1.7321    0.0000    0.0000 C   0  0  0  0  0  0  0  0  0  0  0  0
   -2.4821   -1.2990    0.0000 C   0  0  0  0  0  0  0  0  0  0  0  0
   -1.1830   -2.0490    0.0000 C   0  0  0  0  0  0  0  0  0  0  0  0
   -2.4821   -2.7990    0.0000 C   0  0  0  0  0  0  0  0  0  0  0  0
   -1.9690   -4.2086    0.0000 C   0  0  0  0  0  0  0  0  0  0  0  0
   -2.9332   -5.3576    0.0000 C   0  0  0  0  0  0  0  0  0  0  0  0
   -1.4560   -5.6181    0.0000 C   0  0  0  0  0  0  0  0  0  0  0  0
    0.0212   -5.8786    0.0000 O   0  0  0  0  0  0  0  0  0  0  0  0
   -0.4918   -4.4690    0.0000 C   0  0  0  0  0  0  0  0  0  0  0  0
   -0.4330   -0.7500    0.0000 C   0  0  0  0  0  0  0  0  0  0  0  0
    3.2455    4.8567    0.0000 H   0  0  0  0  0  0  0  0  0  0  0  0
    5.2358    3.1867    0.0000 H   0  0  0  0  0  0  0  0  0  0  0  0
    3.9435    1.3340    0.0000 H   0  0  0  0  0  0  0  0  0  0  0  0
    1.6453    3.2623    0.0000 H   0  0  0  0  0  0  0  0  0  0  0  0
    0.6811    2.1132    0.0000 H   0  0  0  0  0  0  0  0  0  0  0  0
    2.9793    0.1849    0.0000 H   0  0  0  0  0  0  0  0  0  0  0  0
    1.8302   -1.1491    0.0000 H   0  0  0  0  0  0  0  0  0  0  0  0
   -0.4330    2.2500    0.0000 H   0  0  0  0  0  0  0  0  0  0  0  0
   -2.7927    1.0607    0.0000 H   0  0  0  0  0  0  0  0  0  0  0  0
   -3.9309   -0.9108    0.0000 H   0  0  0  0  0  0  0  0  0  0  0  0
   -0.2256   -2.7970    0.0000 H   0  0  0  0  0  0  0  0  0  0  0  0
   -3.9593   -3.0595    0.0000 H   0  0  0  0  0  0  0  0  0  0  0  0
   -4.2322   -4.6076    0.0000 H   0  0  0  0  0  0  0  0  0  0  0  0
   -3.4462   -6.7672    0.0000 H   0  0  0  0  0  0  0  0  0  0  0  0
    0.3968   -3.6404    0.0000 H   0  0  0  0  0  0  0  0  0  0  0  0
  1  2  1  0
  2  3  1  0
  3  4  1  0
  4  5  1  0
  5  6  1  0
  6  7  1  0
  7  8  1  0
  8  9  1  0
  9 10  1  0
 10 11  1  0
 11 12  1  0
 12 13  1  0
 13 14  1  0
  8 15  1  0
 15  4  1  0
 15  5  1  0
 15  6  1  0
  9  7  1  0
 12 10  1  0
 14 10  1  0
 14 12  1  0
  1 16  1  0
  1 17  1  0
  2 18  1  0
  2 19  1  0
  3 20  1  0
  3 21  1  0
  4 22  1  0
  5 23  1  0
  6 24  1  0
  7 25  1  0
  8 26  1  0
  9 27  1  0
 11 28  1  0
 11 29  1  0
 14 30  1  0
M  END
$$$$
