
     RDKit          2D

 52 55  0  0  0  0  0  0  0  0999 V2000
    2.6491    0.9642    0.0000 C   0  0  0  0  0  0  0  0  0  0  0  0
    1.5000   -0.0000    0.0000 C   0  0  0  0  0  0  0  0  0  0  0  0
    0.7500   -1.2990    0.0000 C   0  0  0  0  0  0  0  0  0  0  0  0
   -0.7500   -1.2990    0.0000 C   0  0  0  0  0  0  0  0  0  0  0  0
   -1.5000    0.0000    0.0000 C   0  0  0  0  0  0  0  0  0  0  0  0
   -2.6491   -0.9642    0.0000 C   0  0  0  0  0  0  0  0  0  0  0  0
   -3.5726   -2.1462    0.0000 C   0  0  0  0  0  0  0  0  0  0  0  0
   -4.9821   -1.6332    0.0000 C   0  0  0  0  0  0  0  0  0  0  0  0
   -6.2542   -0.8383    0.0000 C   0  0  0  0  0  0  0  0  0  0  0  0
   -7.1777    0.3437    0.0000 C   0  0  0  0  0  0  0  0  0  0  0  0
   -8.1012    1.5257    0.0000 C   0  0  0  0  0  0  0  0  0  0  0  0
   -9.0246    2.7078    0.0000 O   0  0  0  0  0  0  0  0  0  0  0  0
   -8.3597   -0.5798    0.0000 C   0  0  0  0  0  0  0  0  0  0  0  0
   -9.5417   -1.5033    0.0000 C   0  0  0  0  0  0  0  0  0  0  0  0
  -10.9683   -1.9668    0.0000 C   0  0  0  0  0  0  0  0  0  0  0  0
  -10.6564   -0.4996    0.0000 C   0  0  0  0  0  0  0  0  0  0  0  0
   -4.9297   -0.1341    0.0000 C   0  0  0  0  0  0  0  0  0  0  0  0
   -5.4917    1.2567    0.0000 O   0  0  0  0  0  0  0  0  0  0  0  0
   -3.4879    0.2794    0.0000 C   0  0  0  0  0  0  0  0  0  0  0  0
   -0.7500    1.2990    0.0000 N   0  0  0  0  0  0  0  0  0  0  0  0
    0.7500    1.2990    0.0000 C   0  0  0  0  0  0  0  0  0  0  0  0
    3.7981    1.9284    0.0000 H   0  0  0  0  0  0  0  0  0  0  0  0
    3.6132   -0.1849    0.0000 H   0  0  0  0  0  0  0  0  0  0  0  0
    1.8321    2.2222    0.0000 H   0  0  0  0  0  0  0  0  0  0  0  0
    2.6491   -0.9642    0.0000 H   0  0  0  0  0  0  0  0  0  0  0  0
    2.1595   -1.8121    0.0000 H   0  0  0  0  0  0  0  0  0  0  0  0
    0.4895   -2.7762    0.0000 H   0  0  0  0  0  0  0  0  0  0  0  0
   -0.4895   -2.7762    0.0000 H   0  0  0  0  0  0  0  0  0  0  0  0
   -1.4603   -1.6610    0.0000 H   0  0  0  0  0  0  0  0  0  0  0  0
   -2.5230    1.0971    0.0000 H   0  0  0  0  0  0  0  0  0  0  0  0
   -2.1474   -1.5837    0.0000 H   0  0  0  0  0  0  0  0  0  0  0  0
   -2.3005   -2.9411    0.0000 H   0  0  0  0  0  0  0  0  0  0  0  0
   -4.2301   -3.4944    0.0000 H   0  0  0  0  0  0  0  0  0  0  0  0
   -5.6397   -2.9814    0.0000 H   0  0  0  0  0  0  0  0  0  0  0  0
   -7.1145   -2.0670    0.0000 H   0  0  0  0  0  0  0  0  0  0  0  0
   -6.2542    1.5258    0.0000 H   0  0  0  0  0  0  0  0  0  0  0  0
   -6.9191    2.4492    0.0000 H   0  0  0  0  0  0  0  0  0  0  0  0
   -9.4715    0.9157    0.0000 H   0  0  0  0  0  0  0  0  0  0  0  0
   -8.4627    4.0985    0.0000 H   0  0  0  0  0  0  0  0  0  0  0  0
   -9.2832    0.6023    0.0000 H   0  0  0  0  0  0  0  0  0  0  0  0
   -7.5872   -1.8655    0.0000 H   0  0  0  0  0  0  0  0  0  0  0  0
   -8.8375   -2.8277    0.0000 H   0  0  0  0  0  0  0  0  0  0  0  0
  -10.7595   -3.4522    0.0000 H   0  0  0  0  0  0  0  0  0  0  0  0
  -12.4674   -1.9144    0.0000 H   0  0  0  0  0  0  0  0  0  0  0  0
  -12.0472    0.0623    0.0000 H   0  0  0  0  0  0  0  0  0  0  0  0
  -10.1930    0.9270    0.0000 H   0  0  0  0  0  0  0  0  0  0  0  0
   -4.5682    2.4387    0.0000 H   0  0  0  0  0  0  0  0  0  0  0  0
   -4.0498    1.6702    0.0000 H   0  0  0  0  0  0  0  0  0  0  0  0
   -2.2592    1.1398    0.0000 H   0  0  0  0  0  0  0  0  0  0  0  0
   -1.5000    2.5981    0.0000 H   0  0  0  0  0  0  0  0  0  0  0  0
    0.4895    2.7762    0.0000 H   0  0  0  0  0  0  0  0  0  0  0  0
    2.0865    1.9801    0.0000 H   0  0  0  0  0  0  0  0  0  0  0  0
  1  2  1  0
  2  3  1  0
  3  4  1  0
  4  5  1  0
  5  6  1  0
  6  7  1  0
  7  8  1  0
  8  9  1  0
  9 10  1  0
 10 11  1  0
 11 12  1  0
 10 13  1  0
 13 14  1  0
 14 15  1  0
 15 16  1  0
  9 17  1  0
 17 18  1  0
 17 19  1  0
  5 20  1  0
 20 21  1  0
 21  2  1  0
 19  6  1  0
 17  8  1  0
 16 14  1  0
  1 22  1  0
  1 23  1  0
  1 24  1  0
  2 25  1  0
  3 26  1  0
  3 27  1  0
  4 28  1  0
  4 29  1  0
  5 30  1  0
  6 31  1  0
  7 32  1  0
  7 33  1  0
  8 34  1  0
  9 35  1  0
 10 36  1  0
 11 37  1  0
 11 38  1  0
 12 39  1  0
 13 40  1  0
 13 41  1  0
 14 42  1  0
 15 43  1  0
 15 44  1  0
 16 45  1  0
 16 46  1  0
 18 47  1  0
 19 48  1  0
 19 49  1  0
 20 50  1  0
 21 51  1  0
 21 52  1  0
M  END
$$$$
