
     RDKit          2D

 56 59  0  0  0  0  0  0  0  0999 V2000
    8.7914    5.6597    0.0000 C   0  0  0  0  0  0  0  0  0  0  0  0
    8.0414    4.3606    0.0000 C   0  0  0  0  0  0  0  0  0  0  0  0
    7.2914    3.0616    0.0000 C   0  0  0  0  0  0  0  0  0  0  0  0
    5.7914    3.0616    0.0000 N   0  0  0  0  0  0  0  0  0  0  0  0
    5.0414    1.7626    0.0000 C   0  0  0  0  0  0  0  0  0  0  0  0
    3.7424    2.5126    0.0000 N   0  0  0  0  0  2  0  0  0  0  0  0
    2.9924    1.2135    0.0000 C   0  0  0  0  0  0  0  0  0  0  0  0
    1.6933    1.9635    0.0000 N   0  0  0  0  0  0  0  0  0  0  0  0
    0.3943    1.2135    0.0000 C   0  0  0  0  0  0  0  0  0  0  0  0
    1.2760    0.0000    0.0000 C   0  0  0  0  0  0  0  0  0  0  0  0
    2.3907   -1.0037    0.0000 C   0  0  0  0  0  0  0  0  0  0  0  0
    0.3943   -1.2135    0.0000 N   0  0  0  0  0  0  0  0  0  0  0  0
   -1.0323   -0.7500    0.0000 C   0  0  0  0  0  0  0  0  0  0  0  0
   -1.0323    0.7500    0.0000 C   0  0  0  0  0  0  0  0  0  0  0  0
   -1.3442    2.2172    0.0000 C   0  0  0  0  0  0  0  0  0  0  0  0
   -2.8114    1.9054    0.0000 C   0  0  0  0  0  0  0  0  0  0  0  0
   -4.2786    1.5935    0.0000 C   0  0  0  0  0  0  0  0  0  0  0  0
   -5.5507    0.7986    0.0000 C   0  0  0  0  0  0  0  0  0  0  0  0
   -4.2262    0.0944    0.0000 C   0  0  0  0  0  0  0  0  0  0  0  0
   -2.7408   -0.1144    0.0000 N   0  0  0  0  0  0  0  0  0  0  0  0
   -1.6560    3.6844    0.0000 C   0  0  0  0  0  0  0  0  0  0  0  0
   -2.4509    4.9565    0.0000 C   0  0  0  0  0  0  0  0  0  0  0  0
   -3.1551    3.6321    0.0000 C   0  0  0  0  0  0  0  0  0  0  0  0
    4.2914    0.4635    0.0000 N   0  0  0  0  0  2  0  0  0  0  0  0
    7.4924    6.4097    0.0000 H   0  0  0  0  0  0  0  0  0  0  0  0
   10.0905    4.9097    0.0000 H   0  0  0  0  0  0  0  0  0  0  0  0
    9.5414    6.9587    0.0000 H   0  0  0  0  0  0  0  0  0  0  0  0
    9.3405    3.6106    0.0000 H   0  0  0  0  0  0  0  0  0  0  0  0
    6.7424    5.1106    0.0000 H   0  0  0  0  0  0  0  0  0  0  0  0
    8.0414    1.7626    0.0000 H   0  0  0  0  0  0  0  0  0  0  0  0
    6.3405    1.0126    0.0000 H   0  0  0  0  0  0  0  0  0  0  0  0
    2.5003    0.3612    0.0000 H   0  0  0  0  0  0  0  0  0  0  0  0
    1.6933    3.4635    0.0000 H   0  0  0  0  0  0  0  0  0  0  0  0
   -0.0442    2.6480    0.0000 H   0  0  0  0  0  0  0  0  0  0  0  0
    1.9798    0.3742    0.0000 H   0  0  0  0  0  0  0  0  0  0  0  0
    1.5304   -2.2324    0.0000 H   0  0  0  0  0  0  0  0  0  0  0  0
    3.3944    0.1110    0.0000 H   0  0  0  0  0  0  0  0  0  0  0  0
    3.5054   -2.0074    0.0000 H   0  0  0  0  0  0  0  0  0  0  0  0
    0.6805   -2.6860    0.0000 H   0  0  0  0  0  0  0  0  0  0  0  0
   -1.3442   -2.2172    0.0000 H   0  0  0  0  0  0  0  0  0  0  0  0
   -2.5177   -0.9588    0.0000 H   0  0  0  0  0  0  0  0  0  0  0  0
   -2.5177    0.9588    0.0000 H   0  0  0  0  0  0  0  0  0  0  0  0
    0.0741    2.7056    0.0000 H   0  0  0  0  0  0  0  0  0  0  0  0
   -2.3230    0.4871    0.0000 H   0  0  0  0  0  0  0  0  0  0  0  0
   -3.4690    3.2535    0.0000 H   0  0  0  0  0  0  0  0  0  0  0  0
   -4.8405    2.9843    0.0000 H   0  0  0  0  0  0  0  0  0  0  0  0
   -6.5544    1.9133    0.0000 H   0  0  0  0  0  0  0  0  0  0  0  0
   -6.4742   -0.3834    0.0000 H   0  0  0  0  0  0  0  0  0  0  0  0
   -4.6898   -1.3322    0.0000 H   0  0  0  0  0  0  0  0  0  0  0  0
   -2.1789   -1.5051    0.0000 H   0  0  0  0  0  0  0  0  0  0  0  0
   -1.9683    1.1714    0.0000 H   0  0  0  0  0  0  0  0  0  0  0  0
   -0.2652    4.2464    0.0000 H   0  0  0  0  0  0  0  0  0  0  0  0
   -1.3362    5.9602    0.0000 H   0  0  0  0  0  0  0  0  0  0  0  0
   -3.6329    5.8800    0.0000 H   0  0  0  0  0  0  0  0  0  0  0  0
   -4.5817    4.0956    0.0000 H   0  0  0  0  0  0  0  0  0  0  0  0
   -3.7171    2.2413    0.0000 H   0  0  0  0  0  0  0  0  0  0  0  0
  1  2  1  0
  2  3  1  0
  3  4  2  3
  4  5  1  0
  5  6  1  0
  6  7  1  0
  7  8  1  0
  8  9  1  0
  9 10  1  0
 10 11  1  0
 10 12  1  0
 12 13  1  0
 13 14  1  0
 14 15  1  0
 15 16  1  0
 16 17  1  0
 17 18  1  0
 18 19  1  0
 19 20  1  0
 15 21  1  0
 21 22  1  0
 22 23  1  0
  7 24  1  0
 24  5  1  0
 14  9  1  0
 19 17  1  0
 23 21  1  0
  1 25  1  0
  1 26  1  0
  1 27  1  0
  2 28  1  0
  2 29  1  0
  3 30  1  0
  5 31  1  1
  7 32  1  1
  8 33  1  0
  9 34  1  1
 10 35  1  6
 11 36  1  0
 11 37  1  0
 11 38  1  0
 12 39  1  0
 13 40  1  0
 13 41  1  0
 14 42  1  6
 15 43  1  6
 16 44  1  0
 16 45  1  0
 17 46  1  6
 18 47  1  0
 18 48  1  0
 19 49  1  1
 20 50  1  0
 20 51  1  0
 21 52  1  0
 22 53  1  0
 22 54  1  0
 23 55  1  0
 23 56  1  0
M  RAD  2   6   2  24   2
M  END
$$$$
