
     RDKit          2D

 81 88  0  0  0  0  0  0  0  0999 V2000
    4.3440   -6.7765    0.0000 C   0  0  0  0  0  0  0  0  0  0  0  0
    5.1610   -5.5185    0.0000 O   0  0  0  0  0  0  0  0  0  0  0  0
    4.4800   -4.1820    0.0000 C   0  0  0  0  0  0  0  0  0  0  0  0
    5.8165   -3.5010    0.0000 C   0  0  0  0  0  0  0  0  0  0  0  0
    3.1435   -4.8630    0.0000 C   0  0  0  0  0  0  0  0  0  0  0  0
    3.7990   -2.8455    0.0000 C   0  0  0  0  0  0  0  0  0  0  0  0
    2.4182   -2.2594    0.0000 C   0  0  0  0  0  0  0  0  0  0  0  0
    1.5155   -1.0614    0.0000 C   0  0  0  0  0  0  0  0  0  0  0  0
    1.3327    0.4274    0.0000 C   0  0  0  0  0  0  0  0  0  0  0  0
    1.9188    1.8082    0.0000 C   0  0  0  0  0  0  0  0  0  0  0  0
    0.4209    1.8867    0.0000 N   0  0  0  0  0  0  0  0  0  0  0  0
   -0.2601    3.2232    0.0000 N   0  0  0  0  0  0  0  0  0  0  0  0
    0.4209    4.5597    0.0000 C   0  0  0  0  0  0  0  0  0  0  0  0
   -0.6398    5.6203    0.0000 C   0  0  0  0  0  0  0  0  0  0  0  0
    0.5259    6.5643    0.0000 F   0  0  0  0  0  0  0  0  0  0  0  0
   -1.9763    4.9394    0.0000 C   0  0  0  0  0  0  0  0  0  0  0  0
   -3.4578    4.7047    0.0000 C   0  0  0  0  0  0  0  0  0  0  0  0
   -4.6714    5.5864    0.0000 C   0  0  0  0  0  0  0  0  0  0  0  0
   -0.0000   -1.0607    0.0000 C   0  0  0  0  0  0  0  0  0  0  0  0
    1.0607    0.0000    0.0000 O   0  0  0  0  0  0  0  0  0  0  0  0
   -0.0000    1.0607    0.0000 C   0  0  0  0  0  0  0  0  0  0  0  0
   -1.0607    2.1213    0.0000 C   0  0  0  0  0  0  0  0  0  0  0  0
   -2.1213    1.0607    0.0000 C   0  0  0  0  0  0  0  0  0  0  0  0
   -3.4578    1.7416    0.0000 C   0  0  0  0  0  0  0  0  0  0  0  0
   -3.2232    3.2232    0.0000 C   0  0  0  0  0  0  0  0  0  0  0  0
   -1.7416    3.4578    0.0000 C   0  0  0  0  0  0  0  0  0  0  0  0
   -1.0607    0.0000    0.0000 N   0  0  0  0  0  0  0  0  0  0  0  0
    3.1168    2.7109    0.0000 C   0  0  0  0  0  0  0  0  0  0  0  0
    5.2174    2.4157    0.0000 C   0  0  0  0  0  0  0  0  0  0  0  0
    5.4002    0.9268    0.0000 C   0  0  0  0  0  0  0  0  0  0  0  0
    6.8891    1.1096    0.0000 C   0  0  0  0  0  0  0  0  0  0  0  0
    8.1748    0.3371    0.0000 Cl  0  0  0  0  0  0  0  0  0  0  0  0
    7.0719   -0.3792    0.0000 C   0  0  0  0  0  0  0  0  0  0  0  0
    6.4858   -1.7599    0.0000 C   0  0  0  0  0  0  0  0  0  0  0  0
    5.2878   -2.6627    0.0000 C   0  0  0  0  0  0  0  0  0  0  0  0
    6.7063    2.5985    0.0000 C   0  0  0  0  0  0  0  0  0  0  0  0
    3.5271   -8.0345    0.0000 H   0  0  0  0  0  0  0  0  0  0  0  0
    5.6020   -7.5934    0.0000 H   0  0  0  0  0  0  0  0  0  0  0  0
    2.9958   -6.1190    0.0000 H   0  0  0  0  0  0  0  0  0  0  0  0
    7.2781   -3.1636    0.0000 H   0  0  0  0  0  0  0  0  0  0  0  0
    6.4975   -4.8375    0.0000 H   0  0  0  0  0  0  0  0  0  0  0  0
    5.4792   -2.0394    0.0000 H   0  0  0  0  0  0  0  0  0  0  0  0
    1.8070   -5.5439    0.0000 H   0  0  0  0  0  0  0  0  0  0  0  0
    3.3002   -6.3548    0.0000 H   0  0  0  0  0  0  0  0  0  0  0  0
    2.1593   -3.7309    0.0000 H   0  0  0  0  0  0  0  0  0  0  0  0
    2.7760   -3.9425    0.0000 H   0  0  0  0  0  0  0  0  0  0  0  0
    1.9796   -3.6938    0.0000 H   0  0  0  0  0  0  0  0  0  0  0  0
    1.0479   -2.8695    0.0000 H   0  0  0  0  0  0  0  0  0  0  0  0
    0.6986   -2.3194    0.0000 H   0  0  0  0  0  0  0  0  0  0  0  0
    0.0301   -1.2703    0.0000 H   0  0  0  0  0  0  0  0  0  0  0  0
   -0.0768   -0.0856    0.0000 H   0  0  0  0  0  0  0  0  0  0  0  0
    1.8703   -0.9729    0.0000 H   0  0  0  0  0  0  0  0  0  0  0  0
    1.4803    3.2426    0.0000 H   0  0  0  0  0  0  0  0  0  0  0  0
   -0.0674    0.4684    0.0000 H   0  0  0  0  0  0  0  0  0  0  0  0
    1.8392    4.0714    0.0000 H   0  0  0  0  0  0  0  0  0  0  0  0
    1.3649    5.7254    0.0000 H   0  0  0  0  0  0  0  0  0  0  0  0
   -1.4567    6.8784    0.0000 H   0  0  0  0  0  0  0  0  0  0  0  0
   -2.4398    6.3659    0.0000 H   0  0  0  0  0  0  0  0  0  0  0  0
   -5.8849    6.4681    0.0000 H   0  0  0  0  0  0  0  0  0  0  0  0
   -5.5530    4.3729    0.0000 H   0  0  0  0  0  0  0  0  0  0  0  0
   -3.7897    6.7999    0.0000 H   0  0  0  0  0  0  0  0  0  0  0  0
   -0.1828   -2.5495    0.0000 H   0  0  0  0  0  0  0  0  0  0  0  0
    1.2858    1.8331    0.0000 H   0  0  0  0  0  0  0  0  0  0  0  0
    0.3301    2.6832    0.0000 H   0  0  0  0  0  0  0  0  0  0  0  0
   -3.0030   -0.1529    0.0000 H   0  0  0  0  0  0  0  0  0  0  0  0
   -3.9954    0.3413    0.0000 H   0  0  0  0  0  0  0  0  0  0  0  0
   -4.9067    2.1299    0.0000 H   0  0  0  0  0  0  0  0  0  0  0  0
   -4.7232    3.2232    0.0000 H   0  0  0  0  0  0  0  0  0  0  0  0
    2.0938    3.8080    0.0000 H   0  0  0  0  0  0  0  0  0  0  0  0
    3.4542    4.1724    0.0000 H   0  0  0  0  0  0  0  0  0  0  0  0
    4.0354    3.3391    0.0000 H   0  0  0  0  0  0  0  0  0  0  0  0
    5.5831   -0.5620    0.0000 H   0  0  0  0  0  0  0  0  0  0  0  0
    3.9114    0.7440    0.0000 H   0  0  0  0  0  0  0  0  0  0  0  0
    8.4814    0.1338    0.0000 H   0  0  0  0  0  0  0  0  0  0  0  0
    8.2854   -1.2608    0.0000 H   0  0  0  0  0  0  0  0  0  0  0  0
    7.9630   -2.0204    0.0000 H   0  0  0  0  0  0  0  0  0  0  0  0
    7.2584   -3.0456    0.0000 H   0  0  0  0  0  0  0  0  0  0  0  0
    6.7061   -3.1509    0.0000 H   0  0  0  0  0  0  0  0  0  0  0  0
    5.3141   -4.1624    0.0000 H   0  0  0  0  0  0  0  0  0  0  0  0
    6.5235    4.0873    0.0000 H   0  0  0  0  0  0  0  0  0  0  0  0
    8.1951    2.7813    0.0000 H   0  0  0  0  0  0  0  0  0  0  0  0
  1  2  1  0
  2  3  1  0
  3  4  1  0
  3  5  1  0
  3  6  1  0
  6  7  1  0
  7  8  1  0
  8  9  1  0
  9 10  1  0
 10 11  1  0
 11 12  1  0
 12 13  1  0
 13 14  1  0
 14 15  1  0
 14 16  1  0
 16 17  1  0
 17 18  1  0
 17 19  1  0
 19 20  1  0
 20 21  1  0
 21 22  1  0
 22 23  1  0
 23 24  1  0
 24 25  1  0
 25 26  1  0
 23 27  1  0
 10 28  1  0
 28 29  1  0
 29 30  1  0
 30 31  1  0
 31 32  1  0
 31 33  1  0
 33 34  1  0
 34 35  1  0
 31 36  1  0
 35  6  1  0
 26 12  1  0
 36 29  1  0
 26 16  1  0
 25 17  1  0
 27 19  1  0
 27 21  1  0
 26 22  1  0
  1 37  1  0
  1 38  1  0
  1 39  1  0
  4 40  1  0
  4 41  1  0
  4 42  1  0
  5 43  1  0
  5 44  1  0
  5 45  1  0
  6 46  1  0
  7 47  1  0
  7 48  1  0
  8 49  1  0
  8 50  1  0
  9 51  1  0
  9 52  1  0
 10 53  1  0
 11 54  1  0
 13 55  1  0
 13 56  1  0
 14 57  1  0
 16 58  1  0
 18 59  1  0
 18 60  1  0
 18 61  1  0
 19 62  1  0
 21 63  1  0
 22 64  1  0
 23 65  1  0
 24 66  1  0
 24 67  1  0
 25 68  1  0
 28 69  1  0
 28 70  1  0
 29 71  1  0
 30 72  1  0
 30 73  1  0
 33 74  1  0
 33 75  1  0
 34 76  1  0
 34 77  1  0
 35 78  1  0
 35 79  1  0
 36 80  1  0
 36 81  1  0
M  END
$$$$
