
     RDKit          2D

 54 58  0  0  0  0  0  0  0  0999 V2000
   -4.7063    1.4877    0.0000 C   0  0  0  0  0  0  0  0  0  0  0  0
   -4.0488    2.8359    0.0000 C   0  0  0  0  0  0  0  0  0  0  0  0
   -4.8876    4.0795    0.0000 N   0  0  0  0  0  0  0  0  0  0  0  0
   -3.3912    4.1841    0.0000 C   0  0  0  0  0  0  0  0  0  0  0  0
   -2.5524    2.9405    0.0000 C   0  0  0  0  0  0  0  0  0  0  0  0
   -2.1895    1.4851    0.0000 C   0  0  0  0  0  0  0  0  0  0  0  0
   -0.8192    2.0952    0.0000 C   0  0  0  0  0  0  0  0  0  0  0  0
    0.3943    1.2135    0.0000 C   0  0  0  0  0  0  0  0  0  0  0  0
    1.2760    0.0000    0.0000 N   0  0  0  0  0  0  0  0  0  0  0  0
    0.3943   -1.2135    0.0000 N   0  0  0  0  0  0  0  0  0  0  0  0
   -1.0323   -0.7500    0.0000 C   0  0  0  0  0  0  0  0  0  0  0  0
   -2.3463   -0.0067    0.0000 C   0  0  0  0  0  0  0  0  0  0  0  0
   -3.7882    0.4068    0.0000 O   0  0  0  0  0  0  0  0  0  0  0  0
   -1.0323    0.7500    0.0000 C   0  0  0  0  0  0  0  0  0  0  0  0
   -2.5241    0.5932    0.0000 N   0  0  0  0  0  0  0  0  0  0  0  0
   -3.1342   -0.7771    0.0000 C   0  0  0  0  0  0  0  0  0  0  0  0
   -1.6625   -1.0670    0.0000 N   0  0  0  0  0  0  0  0  0  0  0  0
   -3.0893   -2.2764    0.0000 C   0  0  0  0  0  0  0  0  0  0  0  0
   -4.2335   -3.2463    0.0000 C   0  0  0  0  0  0  0  0  0  0  0  0
   -5.7053   -2.9565    0.0000 C   0  0  0  0  0  0  0  0  0  0  0  0
   -6.3962   -1.6251    0.0000 C   0  0  0  0  0  0  0  0  0  0  0  0
   -5.7861   -0.2548    0.0000 C   0  0  0  0  0  0  0  0  0  0  0  0
   -4.3344    0.1226    0.0000 C   0  0  0  0  0  0  0  0  0  0  0  0
   -5.6706    0.3387    0.0000 H   0  0  0  0  0  0  0  0  0  0  0  0
   -6.0545    2.1453    0.0000 H   0  0  0  0  0  0  0  0  0  0  0  0
   -3.3581    0.8302    0.0000 H   0  0  0  0  0  0  0  0  0  0  0  0
   -6.2358    4.7370    0.0000 H   0  0  0  0  0  0  0  0  0  0  0  0
   -2.7337    5.5323    0.0000 H   0  0  0  0  0  0  0  0  0  0  0  0
   -1.2667    3.7131    0.0000 H   0  0  0  0  0  0  0  0  0  0  0  0
   -3.6875    1.5636    0.0000 H   0  0  0  0  0  0  0  0  0  0  0  0
    0.1247    3.2609    0.0000 H   0  0  0  0  0  0  0  0  0  0  0  0
   -1.5002    3.4317    0.0000 H   0  0  0  0  0  0  0  0  0  0  0  0
    1.0283    2.5730    0.0000 H   0  0  0  0  0  0  0  0  0  0  0  0
    2.7760    0.0000    0.0000 H   0  0  0  0  0  0  0  0  0  0  0  0
    0.8578   -2.6401    0.0000 H   0  0  0  0  0  0  0  0  0  0  0  0
   -1.6897   -2.0983    0.0000 H   0  0  0  0  0  0  0  0  0  0  0  0
   -2.8347   -1.4250    0.0000 H   0  0  0  0  0  0  0  0  0  0  0  0
   -4.8672   -0.6352    0.0000 H   0  0  0  0  0  0  0  0  0  0  0  0
   -1.6899    2.0982    0.0000 H   0  0  0  0  0  0  0  0  0  0  0  0
   -3.4057    1.8067    0.0000 H   0  0  0  0  0  0  0  0  0  0  0  0
   -1.0082   -2.4168    0.0000 H   0  0  0  0  0  0  0  0  0  0  0  0
   -0.4315   -0.2098    0.0000 H   0  0  0  0  0  0  0  0  0  0  0  0
   -1.6303   -2.6249    0.0000 H   0  0  0  0  0  0  0  0  0  0  0  0
   -2.2412   -3.5137    0.0000 H   0  0  0  0  0  0  0  0  0  0  0  0
   -3.1520   -4.2857    0.0000 H   0  0  0  0  0  0  0  0  0  0  0  0
   -4.6721   -4.6808    0.0000 H   0  0  0  0  0  0  0  0  0  0  0  0
   -5.8435   -4.4501    0.0000 H   0  0  0  0  0  0  0  0  0  0  0  0
   -7.1002   -3.5080    0.0000 H   0  0  0  0  0  0  0  0  0  0  0  0
   -7.6502   -2.4483    0.0000 H   0  0  0  0  0  0  0  0  0  0  0  0
   -7.6972   -0.8784    0.0000 H   0  0  0  0  0  0  0  0  0  0  0  0
   -7.2115    0.2124    0.0000 H   0  0  0  0  0  0  0  0  0  0  0  0
   -6.0134    1.2279    0.0000 H   0  0  0  0  0  0  0  0  0  0  0  0
   -5.1825    1.3598    0.0000 H   0  0  0  0  0  0  0  0  0  0  0  0
   -3.9536    1.5735    0.0000 H   0  0  0  0  0  0  0  0  0  0  0  0
  1  2  1  0
  2  3  1  0
  3  4  1  0
  4  5  1  0
  5  6  1  0
  6  7  1  0
  7  8  1  0
  8  9  1  0
  9 10  1  0
 10 11  1  0
 11 12  1  0
 12 13  1  0
 11 14  1  0
 14 15  1  0
 15 16  1  0
 16 17  1  0
 16 18  1  0
 18 19  1  0
 19 20  1  0
 20 21  1  0
 21 22  1  0
 22 23  1  0
  4  2  1  0
 12  6  1  0
 23 16  1  0
  5  2  1  0
 14  8  1  0
  1 24  1  0
  1 25  1  0
  1 26  1  0
  3 27  1  0
  4 28  1  0
  5 29  1  0
  6 30  1  0
  7 31  1  0
  7 32  1  0
  8 33  1  0
  9 34  1  0
 10 35  1  0
 11 36  1  0
 12 37  1  0
 13 38  1  0
 14 39  1  0
 15 40  1  0
 17 41  1  0
 17 42  1  0
 18 43  1  0
 18 44  1  0
 19 45  1  0
 19 46  1  0
 20 47  1  0
 20 48  1  0
 21 49  1  0
 21 50  1  0
 22 51  1  0
 22 52  1  0
 23 53  1  0
 23 54  1  0
M  END
$$$$
