
     RDKit          2D

 61 66  0  0  0  0  0  0  0  0999 V2000
    4.3382    2.8742    0.0000 C   0  0  0  0  0  0  0  0  0  0  0  0
    4.0777    4.3515    0.0000 C   0  0  0  0  0  0  0  0  0  0  0  0
    2.5777    4.3515    0.0000 C   0  0  0  0  0  0  0  0  0  0  0  0
    1.0777    4.3515    0.0000 C   0  0  0  0  0  0  0  0  0  0  0  0
    1.0777    2.8515    0.0000 C   0  0  0  0  0  0  0  0  0  0  0  0
    1.0777    1.3515    0.0000 C   0  0  0  0  0  0  0  0  0  0  0  0
    1.7286    0.0000    0.0000 C   0  0  0  0  0  0  0  0  0  0  0  0
    1.0777   -1.3515    0.0000 C   0  0  0  0  0  0  0  0  0  0  0  0
   -0.3846   -1.6852    0.0000 C   0  0  0  0  0  0  0  0  0  0  0  0
   -1.5574   -0.7500    0.0000 C   0  0  0  0  0  0  0  0  0  0  0  0
   -2.2082   -2.1015    0.0000 C   0  0  0  0  0  0  0  0  0  0  0  0
   -3.0198   -0.4162    0.0000 C   0  0  0  0  0  0  0  0  0  0  0  0
   -4.4822   -0.0824    0.0000 C   0  0  0  0  0  0  0  0  0  0  0  0
   -5.0648   -1.4647    0.0000 C   0  0  0  0  0  0  0  0  0  0  0  0
   -6.2605   -2.3704    0.0000 C   0  0  0  0  0  0  0  0  0  0  0  0
   -7.7489   -2.5569    0.0000 C   0  0  0  0  0  0  0  0  0  0  0  0
   -8.6546   -1.3612    0.0000 C   0  0  0  0  0  0  0  0  0  0  0  0
   -7.1662   -1.1747    0.0000 C   0  0  0  0  0  0  0  0  0  0  0  0
   -5.9705   -0.2690    0.0000 Al  0  0  0  0  0  3  0  0  0  0  0  0
   -1.5574    0.7500    0.0000 C   0  0  0  0  0  0  0  0  0  0  0  0
   -0.3846    1.6852    0.0000 C   0  0  0  0  0  0  0  0  0  0  0  0
   -0.4223    4.3515    0.0000 C   0  0  0  0  0  0  0  0  0  0  0  0
   -1.1723    5.6505    0.0000 O   0  0  0  0  0  0  0  0  0  0  0  0
   -1.1723    3.0524    0.0000 O   0  0  0  0  0  0  0  0  0  0  0  0
    5.4873    4.8645    0.0000 C   0  0  0  0  0  0  0  0  0  0  0  0
    4.3382    5.8287    0.0000 C   0  0  0  0  0  0  0  0  0  0  0  0
    4.5987    1.3970    0.0000 H   0  0  0  0  0  0  0  0  0  0  0  0
    5.1334    2.8186    0.0000 H   0  0  0  0  0  0  0  0  0  0  0  0
    5.1233    3.0127    0.0000 H   0  0  0  0  0  0  0  0  0  0  0  0
    2.7606    2.8626    0.0000 H   0  0  0  0  0  0  0  0  0  0  0  0
    2.3949    5.8403    0.0000 H   0  0  0  0  0  0  0  0  0  0  0  0
    1.0777    5.8515    0.0000 H   0  0  0  0  0  0  0  0  0  0  0  0
   -0.4111    2.6686    0.0000 H   0  0  0  0  0  0  0  0  0  0  0  0
    2.5666    2.6686    0.0000 H   0  0  0  0  0  0  0  0  0  0  0  0
    2.4885    1.8610    0.0000 H   0  0  0  0  0  0  0  0  0  0  0  0
    3.0066    0.7853    0.0000 H   0  0  0  0  0  0  0  0  0  0  0  0
    3.0066   -0.7853    0.0000 H   0  0  0  0  0  0  0  0  0  0  0  0
    2.4885   -1.8610    0.0000 H   0  0  0  0  0  0  0  0  0  0  0  0
    1.2606   -2.8403    0.0000 H   0  0  0  0  0  0  0  0  0  0  0  0
    0.0966   -3.1059    0.0000 H   0  0  0  0  0  0  0  0  0  0  0  0
   -1.4346   -2.7564    0.0000 H   0  0  0  0  0  0  0  0  0  0  0  0
   -2.8590   -3.4529    0.0000 H   0  0  0  0  0  0  0  0  0  0  0  0
   -3.6289   -1.6202    0.0000 H   0  0  0  0  0  0  0  0  0  0  0  0
   -0.9462   -2.9122    0.0000 H   0  0  0  0  0  0  0  0  0  0  0  0
   -2.8668    1.0760    0.0000 H   0  0  0  0  0  0  0  0  0  0  0  0
   -3.3536   -1.8786    0.0000 H   0  0  0  0  0  0  0  0  0  0  0  0
   -4.4074    1.4157    0.0000 H   0  0  0  0  0  0  0  0  0  0  0  0
   -4.0016   -2.5227    0.0000 H   0  0  0  0  0  0  0  0  0  0  0  0
   -5.6951   -3.7597    0.0000 H   0  0  0  0  0  0  0  0  0  0  0  0
   -8.3315   -3.9391    0.0000 H   0  0  0  0  0  0  0  0  0  0  0  0
   -9.9894   -2.0455    0.0000 H   0  0  0  0  0  0  0  0  0  0  0  0
   -9.0967    0.0722    0.0000 H   0  0  0  0  0  0  0  0  0  0  0  0
   -3.0496    0.5970    0.0000 H   0  0  0  0  0  0  0  0  0  0  0  0
   -2.3681    2.0120    0.0000 H   0  0  0  0  0  0  0  0  0  0  0  0
   -1.6626    2.4705    0.0000 H   0  0  0  0  0  0  0  0  0  0  0  0
    0.0966    3.1059    0.0000 H   0  0  0  0  0  0  0  0  0  0  0  0
   -2.6723    3.0524    0.0000 H   0  0  0  0  0  0  0  0  0  0  0  0
    6.5293    3.7855    0.0000 H   0  0  0  0  0  0  0  0  0  0  0  0
    6.6364    5.8287    0.0000 H   0  0  0  0  0  0  0  0  0  0  0  0
    5.0882    7.1277    0.0000 H   0  0  0  0  0  0  0  0  0  0  0  0
    3.0017    6.5097    0.0000 H   0  0  0  0  0  0  0  0  0  0  0  0
  1  2  1  0
  2  3  1  0
  3  4  1  0
  4  5  1  0
  5  6  1  0
  6  7  1  0
  7  8  1  0
  8  9  1  0
  9 10  1  0
 10 11  1  0
 10 12  1  0
 12 13  1  0
 13 14  1  0
 14 15  1  0
 15 16  1  0
 16 17  1  0
 17 18  1  0
 18 19  1  0
 10 20  1  0
 20 21  1  0
  4 22  1  0
 22 23  2  0
 22 24  1  0
  2 25  1  0
 25 26  1  0
 26  2  1  0
 21  6  1  0
 19 13  1  0
 19 14  1  0
 18 15  1  0
 18 16  1  0
  1 27  1  0
  1 28  1  0
  1 29  1  0
  3 30  1  0
  3 31  1  0
  4 32  1  0
  5 33  1  0
  5 34  1  0
  6 35  1  0
  7 36  1  0
  7 37  1  0
  8 38  1  0
  8 39  1  0
  9 40  1  0
  9 41  1  0
 11 42  1  0
 11 43  1  0
 11 44  1  0
 12 45  1  0
 12 46  1  0
 13 47  1  0
 14 48  1  0
 15 49  1  0
 16 50  1  0
 17 51  1  0
 17 52  1  0
 20 53  1  0
 20 54  1  0
 21 55  1  0
 21 56  1  0
 24 57  1  0
 25 58  1  0
 25 59  1  0
 26 60  1  0
 26 61  1  0
M  END
$$$$
