
     RDKit          2D

 50 55  0  0  0  0  0  0  0  0999 V2000
   -3.7190    0.0000    0.0000 C   0  0  0  0  0  0  0  0  0  0  0  0
   -3.0682    1.3515    0.0000 C   0  0  0  0  0  0  0  0  0  0  0  0
   -1.6058    1.6852    0.0000 C   0  0  0  0  0  0  0  0  0  0  0  0
   -0.4330    2.6205    0.0000 C   0  0  0  0  0  0  0  0  0  0  0  0
    0.7397    3.5557    0.0000 C   0  0  0  0  0  0  0  0  0  0  0  0
   -0.1955    4.7285    0.0000 C   0  0  0  0  0  0  0  0  0  0  0  0
    0.9772    5.6637    0.0000 C   0  0  0  0  0  0  0  0  0  0  0  0
    1.9125    4.4909    0.0000 N   0  0  0  0  0  0  0  0  0  0  0  0
   -0.4330    0.7500    0.0000 C   0  0  0  0  0  0  0  0  0  0  0  0
    0.8660    0.0000    0.0000 C   0  0  0  0  0  0  0  0  0  0  0  0
   -0.4330   -0.7500    0.0000 C   0  0  0  0  0  0  0  0  0  0  0  0
   -1.6058   -1.6852    0.0000 C   0  0  0  0  0  0  0  0  0  0  0  0
   -3.0682   -1.3515    0.0000 C   0  0  0  0  0  0  0  0  0  0  0  0
   -0.2094   -2.2332    0.0000 C   0  0  0  0  0  0  0  0  0  0  0  0
    1.2901   -2.2706    0.0000 C   0  0  0  0  0  0  0  0  0  0  0  0
    2.7896   -2.3080    0.0000 C   0  0  0  0  0  0  0  0  0  0  0  0
    2.7522   -3.8076    0.0000 C   0  0  0  0  0  0  0  0  0  0  0  0
    4.2518   -3.8450    0.0000 C   0  0  0  0  0  0  0  0  0  0  0  0
    5.7513   -3.8824    0.0000 C   0  0  0  0  0  0  0  0  0  0  0  0
    5.7887   -2.3828    0.0000 C   0  0  0  0  0  0  0  0  0  0  0  0
    4.2892   -2.3454    0.0000 C   0  0  0  0  0  0  0  0  0  0  0  0
   -5.2190    0.0000    0.0000 H   0  0  0  0  0  0  0  0  0  0  0  0
   -4.0034    2.5242    0.0000 H   0  0  0  0  0  0  0  0  0  0  0  0
   -2.2566    3.0367    0.0000 H   0  0  0  0  0  0  0  0  0  0  0  0
   -1.0656    3.2405    0.0000 H   0  0  0  0  0  0  0  0  0  0  0  0
    0.1363    2.0625    0.0000 H   0  0  0  0  0  0  0  0  0  0  0  0
    1.6750    2.3830    0.0000 H   0  0  0  0  0  0  0  0  0  0  0  0
   -1.1307    5.9012    0.0000 H   0  0  0  0  0  0  0  0  0  0  0  0
   -0.9501    4.2647    0.0000 H   0  0  0  0  0  0  0  0  0  0  0  0
    2.1500    6.5989    0.0000 H   0  0  0  0  0  0  0  0  0  0  0  0
    0.0420    6.8364    0.0000 H   0  0  0  0  0  0  0  0  0  0  0  0
    3.4031    4.3230    0.0000 H   0  0  0  0  0  0  0  0  0  0  0  0
    0.0930    1.3490    0.0000 H   0  0  0  0  0  0  0  0  0  0  0  0
    1.8302    1.1491    0.0000 H   0  0  0  0  0  0  0  0  0  0  0  0
    1.9631   -1.0230    0.0000 H   0  0  0  0  0  0  0  0  0  0  0  0
   -2.0479   -3.1186    0.0000 H   0  0  0  0  0  0  0  0  0  0  0  0
   -4.5305   -1.6852    0.0000 H   0  0  0  0  0  0  0  0  0  0  0  0
   -3.0682   -2.8515    0.0000 H   0  0  0  0  0  0  0  0  0  0  0  0
   -0.5067   -3.7035    0.0000 H   0  0  0  0  0  0  0  0  0  0  0  0
    1.0702   -3.7544    0.0000 H   0  0  0  0  0  0  0  0  0  0  0  0
    1.5100   -0.7868    0.0000 H   0  0  0  0  0  0  0  0  0  0  0  0
    2.8270   -0.8085    0.0000 H   0  0  0  0  0  0  0  0  0  0  0  0
    2.7148   -5.3071    0.0000 H   0  0  0  0  0  0  0  0  0  0  0  0
    1.2593   -3.9532    0.0000 H   0  0  0  0  0  0  0  0  0  0  0  0
    4.2144   -5.3445    0.0000 H   0  0  0  0  0  0  0  0  0  0  0  0
    7.2508   -3.9198    0.0000 H   0  0  0  0  0  0  0  0  0  0  0  0
    5.7139   -5.3819    0.0000 H   0  0  0  0  0  0  0  0  0  0  0  0
    5.8261   -0.8833    0.0000 H   0  0  0  0  0  0  0  0  0  0  0  0
    7.2882   -2.4202    0.0000 H   0  0  0  0  0  0  0  0  0  0  0  0
    4.3265   -0.8459    0.0000 H   0  0  0  0  0  0  0  0  0  0  0  0
  1  2  2  0
  2  3  1  0
  3  4  1  0
  4  5  1  0
  5  6  1  0
  6  7  1  0
  7  8  1  0
  3  9  1  0
  9 10  1  0
 10 11  1  0
 11 12  1  0
 12 13  1  0
 12 14  1  0
 14 15  1  0
 15 16  1  0
 16 17  1  0
 17 18  1  0
 18 19  1  0
 19 20  1  0
 20 21  1  0
 13  1  1  0
 21 16  1  0
  8  5  1  0
 11  9  1  0
 21 18  1  0
 14 11  1  0
  1 22  1  0
  2 23  1  0
  3 24  1  0
  4 25  1  0
  4 26  1  0
  5 27  1  0
  6 28  1  0
  6 29  1  0
  7 30  1  0
  7 31  1  0
  8 32  1  0
  9 33  1  0
 10 34  1  0
 10 35  1  0
 12 36  1  0
 13 37  1  0
 13 38  1  0
 14 39  1  0
 15 40  1  0
 15 41  1  0
 16 42  1  0
 17 43  1  0
 17 44  1  0
 18 45  1  0
 19 46  1  0
 19 47  1  0
 20 48  1  0
 20 49  1  0
 21 50  1  0
M  END
$$$$
