
     RDKit          2D

 68 75  0  0  0  0  0  0  0  0999 V2000
    5.8049    6.7371    0.0000 C   0  0  0  0  0  0  0  0  0  0  0  0
    5.9617    5.2454    0.0000 C   0  0  0  0  0  0  0  0  0  0  0  0
    6.1185    3.7536    0.0000 C   0  0  0  0  0  0  0  0  0  0  0  0
    6.2753    2.2618    0.0000 C   0  0  0  0  0  0  0  0  0  0  0  0
    6.4321    0.7700    0.0000 C   0  0  0  0  0  0  0  0  0  0  0  0
    6.5888   -0.7218    0.0000 O   0  0  0  0  0  0  0  0  0  0  0  0
    4.4699    5.0886    0.0000 C   0  0  0  0  0  0  0  0  0  0  0  0
    4.3653    3.5922    0.0000 C   0  0  0  0  0  0  0  0  0  0  0  0
    3.1217    4.4310    0.0000 C   0  0  0  0  0  0  0  0  0  0  0  0
    2.0797    3.3520    0.0000 C   0  0  0  0  0  0  0  0  0  0  0  0
    1.0377    2.2730    0.0000 C   0  0  0  0  0  0  0  0  0  0  0  0
   -0.0043    1.1940    0.0000 C   0  0  0  0  0  0  0  0  0  0  0  0
   -1.2478    2.0328    0.0000 C   0  0  0  0  0  0  0  0  0  0  0  0
   -2.5960    1.3752    0.0000 C   0  0  0  0  0  0  0  0  0  0  0  0
   -1.3525    0.5364    0.0000 C   0  0  0  0  0  0  0  0  0  0  0  0
    2.2400    5.6445    0.0000 C   0  0  0  0  0  0  0  0  0  0  0  0
    1.8266    7.0864    0.0000 C   0  0  0  0  0  0  0  0  0  0  0  0
    3.2820    6.7235    0.0000 C   0  0  0  0  0  0  0  0  0  0  0  0
    4.3240    7.8026    0.0000 C   0  0  0  0  0  0  0  0  0  0  0  0
    4.7375    6.3607    0.0000 C   0  0  0  0  0  0  0  0  0  0  0  0
    6.2292    6.5175    0.0000 C   0  0  0  0  0  0  0  0  0  0  0  0
    7.7210    6.6743    0.0000 C   0  0  0  0  0  0  0  0  0  0  0  0
    8.0329    5.2070    0.0000 C   0  0  0  0  0  0  0  0  0  0  0  0
    9.1476    6.2107    0.0000 C   0  0  0  0  0  0  0  0  0  0  0  0
   10.0293    7.4243    0.0000 C   0  0  0  0  0  0  0  0  0  0  0  0
   11.5293    7.4243    0.0000 F   0  0  0  0  0  0  0  0  0  0  0  0
    9.1476    8.6378    0.0000 C   0  0  0  0  0  0  0  0  0  0  0  0
    7.7210    8.1743    0.0000 C   0  0  0  0  0  0  0  0  0  0  0  0
    8.6027    6.9607    0.0000 C   0  0  0  0  0  0  0  0  0  0  0  0
    5.6481    8.2289    0.0000 H   0  0  0  0  0  0  0  0  0  0  0  0
    7.2664    7.0746    0.0000 H   0  0  0  0  0  0  0  0  0  0  0  0
    4.3433    6.3997    0.0000 H   0  0  0  0  0  0  0  0  0  0  0  0
    7.4105    4.8570    0.0000 H   0  0  0  0  0  0  0  0  0  0  0  0
    7.6103    3.9104    0.0000 H   0  0  0  0  0  0  0  0  0  0  0  0
    4.7090    3.2405    0.0000 H   0  0  0  0  0  0  0  0  0  0  0  0
    7.7670    2.4186    0.0000 H   0  0  0  0  0  0  0  0  0  0  0  0
    4.7835    2.1050    0.0000 H   0  0  0  0  0  0  0  0  0  0  0  0
    4.9403    0.6132    0.0000 H   0  0  0  0  0  0  0  0  0  0  0  0
    7.9238    0.9268    0.0000 H   0  0  0  0  0  0  0  0  0  0  0  0
    7.9592   -1.3319    0.0000 H   0  0  0  0  0  0  0  0  0  0  0  0
    4.2353    6.5701    0.0000 H   0  0  0  0  0  0  0  0  0  0  0  0
    3.9267    2.1578    0.0000 H   0  0  0  0  0  0  0  0  0  0  0  0
    5.6896    2.8879    0.0000 H   0  0  0  0  0  0  0  0  0  0  0  0
    3.0237    2.1863    0.0000 H   0  0  0  0  0  0  0  0  0  0  0  0
    0.8817    4.2547    0.0000 H   0  0  0  0  0  0  0  0  0  0  0  0
    2.1167    1.2310    0.0000 H   0  0  0  0  0  0  0  0  0  0  0  0
   -0.0413    3.3150    0.0000 H   0  0  0  0  0  0  0  0  0  0  0  0
    0.8774   -0.0195    0.0000 H   0  0  0  0  0  0  0  0  0  0  0  0
   -1.1432    3.5291    0.0000 H   0  0  0  0  0  0  0  0  0  0  0  0
   -3.4777    2.5887    0.0000 H   0  0  0  0  0  0  0  0  0  0  0  0
   -3.6380    0.2962    0.0000 H   0  0  0  0  0  0  0  0  0  0  0  0
   -1.4571   -0.9599    0.0000 H   0  0  0  0  0  0  0  0  0  0  0  0
    0.8217    5.1562    0.0000 H   0  0  0  0  0  0  0  0  0  0  0  0
    0.3348    6.9296    0.0000 H   0  0  0  0  0  0  0  0  0  0  0  0
    1.9312    8.5828    0.0000 H   0  0  0  0  0  0  0  0  0  0  0  0
    3.4423    9.0161    0.0000 H   0  0  0  0  0  0  0  0  0  0  0  0
    5.4730    8.7668    0.0000 H   0  0  0  0  0  0  0  0  0  0  0  0
    4.9980    4.8835    0.0000 H   0  0  0  0  0  0  0  0  0  0  0  0
    6.4381    8.0028    0.0000 H   0  0  0  0  0  0  0  0  0  0  0  0
    6.5667    5.0559    0.0000 H   0  0  0  0  0  0  0  0  0  0  0  0
    6.7210    4.4798    0.0000 H   0  0  0  0  0  0  0  0  0  0  0  0
    8.8278    3.9350    0.0000 H   0  0  0  0  0  0  0  0  0  0  0  0
   10.2623    5.2070    0.0000 H   0  0  0  0  0  0  0  0  0  0  0  0
   10.4466    9.3878    0.0000 H   0  0  0  0  0  0  0  0  0  0  0  0
    8.5375   10.0081    0.0000 H   0  0  0  0  0  0  0  0  0  0  0  0
    6.5075    9.0559    0.0000 H   0  0  0  0  0  0  0  0  0  0  0  0
    7.8080    5.6886    0.0000 H   0  0  0  0  0  0  0  0  0  0  0  0
    8.8631    5.4835    0.0000 H   0  0  0  0  0  0  0  0  0  0  0  0
  1  2  1  0
  2  3  1  0
  3  4  1  0
  4  5  1  0
  5  6  1  0
  2  7  1  0
  7  8  1  0
  8  9  1  0
  9 10  1  0
 10 11  1  0
 11 12  1  0
 12 13  1  0
 13 14  1  0
 14 15  1  0
  9 16  1  0
 16 17  1  0
 17 18  1  0
 18 19  1  0
 19 20  1  0
 20 21  1  0
 21 22  1  0
 22 23  1  0
 23 24  1  0
 24 25  1  0
 25 26  1  0
 25 27  1  0
 27 28  1  0
 28 29  1  0
  9  7  1  0
 15 12  1  0
 18 16  1  0
 24 22  1  0
 29 25  1  0
 15 13  1  0
 20 18  1  0
 28 22  1  0
  1 30  1  0
  1 31  1  0
  1 32  1  0
  2 33  1  0
  3 34  1  0
  3 35  1  0
  4 36  1  0
  4 37  1  0
  5 38  1  0
  5 39  1  0
  6 40  1  0
  7 41  1  0
  8 42  1  0
  8 43  1  0
 10 44  1  0
 10 45  1  0
 11 46  1  0
 11 47  1  0
 12 48  1  0
 13 49  1  0
 14 50  1  0
 14 51  1  0
 15 52  1  0
 16 53  1  0
 17 54  1  0
 17 55  1  0
 19 56  1  0
 19 57  1  0
 20 58  1  0
 21 59  1  0
 21 60  1  0
 23 61  1  0
 23 62  1  0
 24 63  1  0
 27 64  1  0
 27 65  1  0
 28 66  1  0
 29 67  1  0
 29 68  1  0
M  END
$$$$
