
     RDKit          2D

 34 35  0  0  0  0  0  0  0  0999 V2000
    1.6453    3.2623    0.0000 C   0  0  0  0  0  0  0  0  0  0  0  0
    2.7944    2.2981    0.0000 C   0  0  0  0  0  0  0  0  0  0  0  0
    3.9435    1.3340    0.0000 C   0  0  0  0  0  0  0  0  0  0  0  0
    5.0925    0.3698    0.0000 O   0  0  0  0  0  0  0  0  0  0  0  0
    1.8302    1.1491    0.0000 C   0  0  0  0  0  0  0  0  0  0  0  0
    0.8660    0.0000    0.0000 C   0  0  0  0  0  0  0  0  0  0  0  0
    1.8302   -1.1491    0.0000 C   0  0  0  0  0  0  0  0  0  0  0  0
   -0.4330    0.7500    0.0000 C   0  0  0  0  0  0  0  0  0  0  0  0
   -0.4330   -0.7500    0.0000 C   0  0  0  0  0  0  0  0  0  0  0  0
    0.0800   -2.1595    0.0000 C   0  0  0  0  0  0  0  0  0  0  0  0
    0.0800   -3.6595    0.0000 N   0  0  0  0  0  0  0  0  0  0  0  0
   -1.2190   -2.9095    0.0000 C   0  0  0  0  0  0  0  0  0  0  0  0
   -2.1832   -4.0586    0.0000 C   0  0  0  0  0  0  0  0  0  0  0  0
    0.4963    4.2265    0.0000 H   0  0  0  0  0  0  0  0  0  0  0  0
    2.6095    4.4114    0.0000 H   0  0  0  0  0  0  0  0  0  0  0  0
    0.4317    2.3807    0.0000 H   0  0  0  0  0  0  0  0  0  0  0  0
    3.7586    3.4472    0.0000 H   0  0  0  0  0  0  0  0  0  0  0  0
    4.5265    1.8776    0.0000 H   0  0  0  0  0  0  0  0  0  0  0  0
    4.3776    2.0025    0.0000 H   0  0  0  0  0  0  0  0  0  0  0  0
    6.5021    0.8828    0.0000 H   0  0  0  0  0  0  0  0  0  0  0  0
    0.6811    2.1132    0.0000 H   0  0  0  0  0  0  0  0  0  0  0  0
    3.0882    0.3321    0.0000 H   0  0  0  0  0  0  0  0  0  0  0  0
    2.7944   -2.2981    0.0000 H   0  0  0  0  0  0  0  0  0  0  0  0
    1.1031   -2.4611    0.0000 H   0  0  0  0  0  0  0  0  0  0  0  0
    3.0882   -0.3321    0.0000 H   0  0  0  0  0  0  0  0  0  0  0  0
   -1.9102    1.0105    0.0000 H   0  0  0  0  0  0  0  0  0  0  0  0
   -0.2763    2.2418    0.0000 H   0  0  0  0  0  0  0  0  0  0  0  0
   -1.9310   -0.8285    0.0000 H   0  0  0  0  0  0  0  0  0  0  0  0
    1.5780   -2.0811    0.0000 H   0  0  0  0  0  0  0  0  0  0  0  0
    0.8300   -4.9586    0.0000 H   0  0  0  0  0  0  0  0  0  0  0  0
   -2.3161   -1.8866    0.0000 H   0  0  0  0  0  0  0  0  0  0  0  0
   -3.1474   -5.2077    0.0000 H   0  0  0  0  0  0  0  0  0  0  0  0
   -3.3323   -3.0944    0.0000 H   0  0  0  0  0  0  0  0  0  0  0  0
   -1.0341   -5.0228    0.0000 H   0  0  0  0  0  0  0  0  0  0  0  0
  1  2  1  0
  2  3  1  0
  3  4  1  0
  2  5  1  0
  5  6  1  0
  6  7  1  0
  6  8  1  0
  8  9  1  0
  9 10  1  0
 10 11  1  0
 11 12  1  0
 12 13  1  0
  9  6  1  0
 12 10  1  0
  1 14  1  0
  1 15  1  0
  1 16  1  0
  2 17  1  0
  3 18  1  0
  3 19  1  0
  4 20  1  0
  5 21  1  0
  5 22  1  0
  7 23  1  0
  7 24  1  0
  7 25  1  0
  8 26  1  0
  8 27  1  0
  9 28  1  0
 10 29  1  0
 11 30  1  0
 12 31  1  0
 13 32  1  0
 13 33  1  0
 13 34  1  0
M  END
$$$$
