
     RDKit          3D

 43 47  0  0  0  0  0  0  0  0999 V2000
   20.2511  -10.5572   -3.3768 C   0  0  0  0  0  0  0  0  0  0  0  0
   18.6707  -11.0017   -2.9167 C   0  0  0  0  0  0  0  0  0  0  0  0
   18.2534   -9.8252   -1.5911 C   0  0  0  0  0  0  0  0  0  0  0  0
   16.9010   -9.0557   -1.0016 C   0  0  0  0  0  0  0  0  0  0  0  0
   16.9455  -14.1628   -3.5789 O   0  0  0  0  0  0  0  0  0  0  0  0
   22.3080  -12.2849   -5.5116 C   0  0  0  0  0  0  0  0  0  0  0  0
   24.0801  -18.3079   -4.3918 C   0  0  0  0  0  0  0  0  0  0  0  0
   15.9259   -8.6733   -4.7878 C   0  0  0  0  0  0  0  0  0  0  0  0
   24.4654  -19.6651   -3.8153 C   0  0  0  0  0  0  0  0  0  0  0  0
   23.7836  -17.2440   -3.0094 C   0  0  0  0  0  0  0  0  0  0  0  0
   23.7568  -18.3125   -6.1321 C   0  0  0  0  0  0  0  0  0  0  0  0
   22.2229  -10.0388   -1.9564 C   0  0  0  0  0  0  0  0  0  0  0  0
   22.9049  -11.3241   -6.5682 C   0  0  0  0  0  0  0  0  0  0  0  0
   22.7077  -18.1606   -3.8209 C   0  0  0  0  0  0  0  0  0  0  0  0
   22.0765  -12.9103   -2.5609 C   0  0  0  0  0  0  0  0  0  0  0  0
   22.3824  -14.4800   -3.0076 C   0  0  0  0  0  0  0  0  0  0  0  0
   23.9520  -12.2884   -1.3053 C   0  0  0  0  0  0  0  0  0  0  0  0
   22.1962  -15.3838   -2.0220 C   0  0  0  0  0  0  0  0  0  0  0  0
   24.7935  -12.6781   -2.6173 C   0  0  0  0  0  0  0  0  0  0  0  0
   24.1754  -12.7776    0.0287 C   0  0  0  0  0  0  0  0  0  0  0  0
   20.7846   -9.8092   -2.2679 N   0  0  0  0  0  0  0  0  0  0  0  0
   22.6993  -11.6408   -1.7288 C   0  0  0  0  0  0  0  0  0  0  0  0
   21.2225  -16.6184   -1.8764 C   0  0  0  0  0  0  0  0  0  0  0  0
   22.1636  -18.7525   -2.5135 C   0  0  0  0  0  0  0  0  0  0  0  0
   21.6219  -10.8407   -5.7439 C   0  0  0  0  0  0  0  0  0  0  0  0
   22.5814  -17.5286   -1.7468 C   0  0  0  0  0  0  0  0  0  0  0  0
   19.8079  -12.3992   -6.2635 C   0  0  0  0  0  0  0  0  0  0  0  0
   16.5484   -9.6013   -6.2399 C   0  0  0  0  0  0  0  0  0  0  0  0
   21.6562  -11.1500   -4.3263 C   0  0  0  0  0  0  0  0  0  0  0  0
   17.1641  -11.1537   -5.7617 O   0  0  0  0  0  0  0  0  0  0  0  0
   23.0809  -14.9827   -4.3123 C   0  0  0  0  0  0  0  0  0  0  0  0
   18.0279   -8.1356   -5.4321 C   0  0  0  0  0  0  0  0  0  0  0  0
   18.7849   -8.6973   -7.8800 C   0  0  0  0  0  0  0  0  0  0  0  0
   16.4317  -12.3414   -2.0831 C   0  0  0  0  0  0  0  0  0  0  0  0
   20.1208  -10.7618   -6.0968 C   0  0  0  0  0  0  0  0  0  0  0  0
   16.4375   -9.0667   -5.6176 C   0  0  0  0  0  0  0  0  0  0  0  0
   19.3458   -8.2150   -4.7669 C   0  0  0  0  0  0  0  0  0  0  0  0
   17.0190   -7.8283   -5.2216 C   0  0  0  0  0  0  0  0  0  0  0  0
   16.8363  -12.9437   -3.5362 C   0  0  0  0  0  0  0  0  0  0  0  0
   17.3956  -11.6322   -4.2244 C   0  0  0  0  0  0  0  0  0  0  0  0
   15.2088  -11.3572   -2.3240 C   0  0  0  0  0  0  0  0  0  0  0  0
   19.5951   -8.0671   -6.5000 C   0  0  0  0  0  0  0  0  0  0  0  0
   17.8829   -6.5441   -3.6607 C   0  0  0  0  0  0  0  0  0  0  0  0
  2  1  1  0
  3  2  1  0
  4  3  1  0
  9  7  1  0
 10  7  1  0
 11  7  1  0
 13  6  1  0
 14  7  1  0
 14 10  1  0
 16 15  1  0
 18 16  2  3
 19 17  1  0
 20 17  2  0
 21  1  1  0
 21 12  1  0
 22 12  1  0
 22 15  1  0
 22 17  1  0
 23 18  1  0
 24 14  1  0
 25  6  1  0
 25 13  1  0
 26 10  1  0
 26 23  1  0
 26 24  1  0
 28  8  1  0
 29  1  1  0
 29  6  1  0
 29 25  1  0
 30 28  1  0
 31 16  1  0
 35 25  1  0
 35 27  1  0
 36 32  2  0
 37 32  2  0
 38  8  1  0
 38 28  1  0
 38 36  1  0
 39  5  2  0
 39 34  1  0
 40  2  1  0
 40 30  1  0
 40 39  1  0
 41 34  1  0
 42 33  1  0
 42 37  1  0
 43 38  1  0
M  END
$$$$
