
     RDKit          2D

 41 45  0  0  0  0  0  0  0  0999 V2000
    3.0469   -0.5886    0.0000 C   0  0  0  0  0  0  0  0  0  0  0  0
    3.3074    0.8886    0.0000 C   0  0  0  0  0  0  0  0  0  0  0  0
    3.5679    2.3658    0.0000 N   0  0  0  0  0  0  0  0  0  0  0  0
    1.8302    1.1491    0.0000 N   0  0  0  0  0  0  0  0  0  0  0  0
    0.8660    0.0000    0.0000 C   0  0  0  0  0  0  0  0  0  0  0  0
   -0.4330    0.7500    0.0000 C   0  0  0  0  0  0  0  0  0  0  0  0
   -1.7321    0.0000    0.0000 C   0  0  0  0  0  0  0  0  0  0  0  0
   -0.4330   -0.7500    0.0000 C   0  0  0  0  0  0  0  0  0  0  0  0
   -0.4330   -2.2500    0.0000 C   0  0  0  0  0  0  0  0  0  0  0  0
   -0.4330   -3.7500    0.0000 C   0  0  0  0  0  0  0  0  0  0  0  0
   -0.4330   -5.2500    0.0000 C   0  0  0  0  0  0  0  0  0  0  0  0
   -1.9102   -5.5105    0.0000 C   0  0  0  0  0  0  0  0  0  0  0  0
   -2.4233   -6.9200    0.0000 O   0  0  0  0  0  0  0  0  0  0  0  0
   -0.9460   -6.6595    0.0000 C   0  0  0  0  0  0  0  0  0  0  0  0
    0.0181   -7.8086    0.0000 N   0  0  0  0  0  0  0  0  0  0  0  0
   -0.4949   -9.2181    0.0000 C   0  0  0  0  0  0  0  0  0  0  0  0
   -0.4949  -10.7181    0.0000 C   0  0  0  0  0  0  0  0  0  0  0  0
    0.8041   -9.9681    0.0000 C   0  0  0  0  0  0  0  0  0  0  0  0
    2.7865   -2.0658    0.0000 H   0  0  0  0  0  0  0  0  0  0  0  0
    4.5242   -0.8491    0.0000 H   0  0  0  0  0  0  0  0  0  0  0  0
    2.2644   -0.7408    0.0000 H   0  0  0  0  0  0  0  0  0  0  0  0
    4.7846    0.6281    0.0000 H   0  0  0  0  0  0  0  0  0  0  0  0
    4.9774    2.8788    0.0000 H   0  0  0  0  0  0  0  0  0  0  0  0
    2.4188    3.3300    0.0000 H   0  0  0  0  0  0  0  0  0  0  0  0
    1.3172    2.5586    0.0000 H   0  0  0  0  0  0  0  0  0  0  0  0
    1.3002   -0.6686    0.0000 H   0  0  0  0  0  0  0  0  0  0  0  0
   -0.4330    2.2500    0.0000 H   0  0  0  0  0  0  0  0  0  0  0  0
   -2.6962    1.1491    0.0000 H   0  0  0  0  0  0  0  0  0  0  0  0
   -2.6962   -1.1491    0.0000 H   0  0  0  0  0  0  0  0  0  0  0  0
   -1.9330   -2.2500    0.0000 H   0  0  0  0  0  0  0  0  0  0  0  0
    1.0670   -2.2500    0.0000 H   0  0  0  0  0  0  0  0  0  0  0  0
    1.0670   -3.7500    0.0000 H   0  0  0  0  0  0  0  0  0  0  0  0
   -1.9330   -3.7500    0.0000 H   0  0  0  0  0  0  0  0  0  0  0  0
    1.0442   -5.5105    0.0000 H   0  0  0  0  0  0  0  0  0  0  0  0
   -2.8744   -4.3614    0.0000 H   0  0  0  0  0  0  0  0  0  0  0  0
    1.4954   -7.5481    0.0000 H   0  0  0  0  0  0  0  0  0  0  0  0
   -1.9721   -8.9577    0.0000 H   0  0  0  0  0  0  0  0  0  0  0  0
   -1.9721  -10.9786    0.0000 H   0  0  0  0  0  0  0  0  0  0  0  0
    0.0181  -12.1277    0.0000 H   0  0  0  0  0  0  0  0  0  0  0  0
    1.7683  -11.1172    0.0000 H   0  0  0  0  0  0  0  0  0  0  0  0
    1.7683   -8.8191    0.0000 H   0  0  0  0  0  0  0  0  0  0  0  0
  1  2  1  0
  2  3  1  0
  2  4  1  0
  4  5  1  0
  5  6  1  0
  6  7  1  0
  7  8  1  0
  8  9  1  0
  9 10  1  0
 10 11  1  0
 11 12  1  0
 12 13  1  0
 13 14  1  0
 14 15  1  0
 15 16  1  0
 16 17  1  0
 17 18  1  0
  8  5  1  0
 14 11  1  0
 18 16  1  0
  8  6  1  0
 14 12  1  0
  1 19  1  0
  1 20  1  0
  1 21  1  0
  2 22  1  0
  3 23  1  0
  3 24  1  0
  4 25  1  0
  5 26  1  0
  6 27  1  0
  7 28  1  0
  7 29  1  0
  9 30  1  0
  9 31  1  0
 10 32  1  0
 10 33  1  0
 11 34  1  0
 12 35  1  0
 15 36  1  0
 16 37  1  0
 17 38  1  0
 17 39  1  0
 18 40  1  0
 18 41  1  0
M  END
$$$$
