
     RDKit          2D

 92 98  0  0  0  0  0  0  0  0999 V2000
   -8.4459    0.8253    0.0000 C   0  0  0  0  0  0  0  0  0  0  0  0
   -6.9764    0.5244    0.0000 N   0  0  0  0  0  0  0  0  0  0  0  0
   -6.5022   -0.8987    0.0000 C   0  0  0  0  0  0  0  0  0  0  0  0
   -6.0280   -2.3218    0.0000 C   0  0  0  0  0  0  0  0  0  0  0  0
   -5.5539   -3.7449    0.0000 C   0  0  0  0  0  0  0  0  0  0  0  0
   -5.0797   -5.1679    0.0000 C   0  0  0  0  0  0  0  0  0  0  0  0
   -4.6055   -6.5910    0.0000 C   0  0  0  0  0  0  0  0  0  0  0  0
   -3.6566   -4.6938    0.0000 C   0  0  0  0  0  0  0  0  0  0  0  0
   -2.2335   -4.2196    0.0000 C   0  0  0  0  0  0  0  0  0  0  0  0
   -2.8539   -2.8539    0.0000 C   0  0  0  0  0  0  0  0  0  0  0  0
   -1.4380   -3.3493    0.0000 C   0  0  0  0  0  0  0  0  0  0  0  0
   -0.1679   -2.5512    0.0000 C   0  0  0  0  0  0  0  0  0  0  0  0
   -0.7430   -4.0516    0.0000 C   0  0  0  0  0  0  0  0  0  0  0  0
   -0.7317   -5.5516    0.0000 C   0  0  0  0  0  0  0  0  0  0  0  0
    0.5729   -6.2918    0.0000 C   0  0  0  0  0  0  0  0  0  0  0  0
   -2.0251   -6.3113    0.0000 C   0  0  0  0  0  0  0  0  0  0  0  0
   -0.0000   -1.0607    0.0000 C   0  0  0  0  0  0  0  0  0  0  0  0
    1.0607    0.0000    0.0000 C   0  0  0  0  0  0  0  0  0  0  0  0
    0.0000    1.0607    0.0000 As  0  0  0  0  0  3  0  0  0  0  0  0
   -1.0607    0.0000    0.0000 C   0  0  0  0  0  0  0  0  0  0  0  0
   -2.5512   -0.1679    0.0000 C   0  0  0  0  0  0  0  0  0  0  0  0
   -3.3493   -1.4380    0.0000 C   0  0  0  0  0  0  0  0  0  0  0  0
   -4.4099   -0.3774    0.0000 C   0  0  0  0  0  0  0  0  0  0  0  0
   -5.4706    0.6833    0.0000 C   0  0  0  0  0  0  0  0  0  0  0  0
   -6.5313    1.7439    0.0000 O   0  0  0  0  0  0  0  0  0  0  0  0
   -6.1430    3.1928    0.0000 O   0  0  0  0  0  0  0  0  0  0  0  0
    0.3607   -0.0000    0.0000 C   0  0  0  0  0  0  0  0  0  0  0  0
    2.1213   -1.0607    0.0000 C   0  0  0  0  0  0  0  0  0  0  0  0
    3.1820   -2.1213    0.0000 C   0  0  0  0  0  0  0  0  0  0  0  0
    4.5414   -2.7552    0.0000 O   0  0  0  0  0  0  0  0  0  0  0  0
    4.4107   -1.2610    0.0000 C   0  0  0  0  0  0  0  0  0  0  0  0
    5.8596   -0.8727    0.0000 C   0  0  0  0  0  0  0  0  0  0  0  0
    7.3085   -0.4845    0.0000 C   0  0  0  0  0  0  0  0  0  0  0  0
    7.6967    0.9644    0.0000 C   0  0  0  0  0  0  0  0  0  0  0  0
    8.3691   -1.5452    0.0000 C   0  0  0  0  0  0  0  0  0  0  0  0
    9.8180   -1.1569    0.0000 C   0  0  0  0  0  0  0  0  0  0  0  0
    9.4298   -2.6058    0.0000 C   0  0  0  0  0  0  0  0  0  0  0  0
   10.4905   -3.6665    0.0000 C   0  0  0  0  0  0  0  0  0  0  0  0
    7.9809   -2.9940    0.0000 O   0  0  0  0  0  0  0  0  0  0  0  0
   -7.9253   -1.3729    0.0000 P   0  0  0  0  0  0  0  0  0  0  0  0
   -9.0475   -0.3776    0.0000 O   0  0  0  0  0  0  0  0  0  0  0  0
   -8.9201    2.2483    0.0000 H   0  0  0  0  0  0  0  0  0  0  0  0
   -9.1035    0.3746    0.0000 H   0  0  0  0  0  0  0  0  0  0  0  0
   -5.2362   -0.0943    0.0000 H   0  0  0  0  0  0  0  0  0  0  0  0
   -4.5578   -2.0246    0.0000 H   0  0  0  0  0  0  0  0  0  0  0  0
   -7.3827   -2.9659    0.0000 H   0  0  0  0  0  0  0  0  0  0  0  0
   -4.1308   -3.2707    0.0000 H   0  0  0  0  0  0  0  0  0  0  0  0
   -6.9769   -4.2190    0.0000 H   0  0  0  0  0  0  0  0  0  0  0  0
   -6.5028   -5.6421    0.0000 H   0  0  0  0  0  0  0  0  0  0  0  0
   -4.1313   -8.0141    0.0000 H   0  0  0  0  0  0  0  0  0  0  0  0
   -6.0286   -7.0652    0.0000 H   0  0  0  0  0  0  0  0  0  0  0  0
   -3.1352   -6.2938    0.0000 H   0  0  0  0  0  0  0  0  0  0  0  0
   -4.1308   -3.2707    0.0000 H   0  0  0  0  0  0  0  0  0  0  0  0
   -3.0125   -6.0484    0.0000 H   0  0  0  0  0  0  0  0  0  0  0  0
   -2.2747   -5.7190    0.0000 H   0  0  0  0  0  0  0  0  0  0  0  0
   -3.9145   -3.9145    0.0000 H   0  0  0  0  0  0  0  0  0  0  0  0
   -2.0753   -4.7072    0.0000 H   0  0  0  0  0  0  0  0  0  0  0  0
   -0.6655   -4.6351    0.0000 H   0  0  0  0  0  0  0  0  0  0  0  0
    1.1021   -3.3493    0.0000 H   0  0  0  0  0  0  0  0  0  0  0  0
    0.7500   -4.1973    0.0000 H   0  0  0  0  0  0  0  0  0  0  0  0
    0.5841   -7.7918    0.0000 H   0  0  0  0  0  0  0  0  0  0  0  0
    1.8663   -5.5322    0.0000 H   0  0  0  0  0  0  0  0  0  0  0  0
   -3.3185   -7.0710    0.0000 H   0  0  0  0  0  0  0  0  0  0  0  0
   -1.2654   -7.6047    0.0000 H   0  0  0  0  0  0  0  0  0  0  0  0
   -2.9368   -5.1201    0.0000 H   0  0  0  0  0  0  0  0  0  0  0  0
    1.9841    1.1820    0.0000 H   0  0  0  0  0  0  0  0  0  0  0  0
    2.3465   -0.7725    0.0000 H   0  0  0  0  0  0  0  0  0  0  0  0
   -1.5419    1.4207    0.0000 H   0  0  0  0  0  0  0  0  0  0  0  0
   -2.5662    1.3320    0.0000 H   0  0  0  0  0  0  0  0  0  0  0  0
   -3.8961    0.4964    0.0000 H   0  0  0  0  0  0  0  0  0  0  0  0
   -4.5126   -2.3849    0.0000 H   0  0  0  0  0  0  0  0  0  0  0  0
   -5.4706   -1.4380    0.0000 H   0  0  0  0  0  0  0  0  0  0  0  0
   -3.4865    0.8047    0.0000 H   0  0  0  0  0  0  0  0  0  0  0  0
   -6.7564   -0.0892    0.0000 H   0  0  0  0  0  0  0  0  0  0  0  0
   -4.4099    1.7439    0.0000 H   0  0  0  0  0  0  0  0  0  0  0  0
   -7.2037    4.2535    0.0000 H   0  0  0  0  0  0  0  0  0  0  0  0
    2.2427    0.9235    0.0000 H   0  0  0  0  0  0  0  0  0  0  0  0
    3.0448    0.1214    0.0000 H   0  0  0  0  0  0  0  0  0  0  0  0
    1.0607   -2.1213    0.0000 H   0  0  0  0  0  0  0  0  0  0  0  0
    2.3216   -3.3500    0.0000 H   0  0  0  0  0  0  0  0  0  0  0  0
    3.9472    0.1656    0.0000 H   0  0  0  0  0  0  0  0  0  0  0  0
    5.4714    0.5762    0.0000 H   0  0  0  0  0  0  0  0  0  0  0  0
    6.2478   -2.3216    0.0000 H   0  0  0  0  0  0  0  0  0  0  0  0
    9.1456    1.3526    0.0000 H   0  0  0  0  0  0  0  0  0  0  0  0
    6.6361    2.0251    0.0000 H   0  0  0  0  0  0  0  0  0  0  0  0
    9.6873    0.3374    0.0000 H   0  0  0  0  0  0  0  0  0  0  0  0
   11.3123   -1.2877    0.0000 H   0  0  0  0  0  0  0  0  0  0  0  0
   11.5511   -4.7271    0.0000 H   0  0  0  0  0  0  0  0  0  0  0  0
    9.4298   -4.7271    0.0000 H   0  0  0  0  0  0  0  0  0  0  0  0
   11.5511   -2.6058    0.0000 H   0  0  0  0  0  0  0  0  0  0  0  0
   -8.4031   -2.7948    0.0000 H   0  0  0  0  0  0  0  0  0  0  0  0
  -10.4706   -0.8517    0.0000 H   0  0  0  0  0  0  0  0  0  0  0  0
  1  2  2  3
  2  3  1  0
  3  4  1  0
  4  5  1  0
  5  6  1  0
  6  7  1  0
  6  8  1  0
  8  9  1  0
  9 10  1  0
 10 11  1  0
 11 12  1  0
 12 13  1  0
 13 14  1  0
 14 15  2  3
 14 16  1  0
 12 17  1  0
 17 18  1  0
 18 19  1  0
 19 20  1  0
 20 21  1  0
 21 22  1  0
 22 23  1  0
 23 24  1  0
 24 25  1  0
 25 26  1  0
 19 27  1  0
 27 28  1  0
 28 29  1  0
 29 30  1  0
 30 31  1  0
 31 32  1  0
 32 33  1  0
 33 34  2  3
 33 35  1  0
 35 36  1  0
 36 37  1  0
 37 38  1  0
 37 39  1  0
  3 40  1  0
 40 41  1  0
 13  9  1  0
 20 17  1  0
 31 29  1  0
 37 35  1  0
 22 10  1  0
 39 35  1  0
 27 17  1  0
  1 42  1  0
  1 43  1  0
  3 44  1  0
  4 45  1  0
  4 46  1  0
  5 47  1  0
  5 48  1  0
  6 49  1  0
  7 50  1  0
  7 51  1  0
  7 52  1  0
  8 53  1  0
  8 54  1  0
  9 55  1  0
 10 56  1  0
 11 57  1  0
 11 58  1  0
 12 59  1  0
 13 60  1  0
 15 61  1  0
 15 62  1  0
 16 63  1  0
 16 64  1  0
 16 65  1  0
 18 66  1  0
 18 67  1  0
 20 68  1  0
 21 69  1  0
 21 70  1  0
 22 71  1  0
 23 72  1  0
 23 73  1  0
 24 74  1  0
 24 75  1  0
 26 76  1  0
 27 77  1  0
 28 78  1  0
 28 79  1  0
 29 80  1  0
 31 81  1  0
 32 82  1  0
 32 83  1  0
 34 84  1  0
 34 85  1  0
 36 86  1  0
 36 87  1  0
 38 88  1  0
 38 89  1  0
 38 90  1  0
 40 91  1  0
 41 92  1  0
M  END
$$$$
