
     RDKit          2D

 56 56  0  0  0  0  0  0  0  0999 V2000
   -1.1647    2.5095    0.0000 C   0  0  0  0  0  0  0  0  0  0  0  0
   -0.1040    3.5702    0.0000 C   0  0  0  0  0  0  0  0  0  0  0  0
   -0.4923    5.0191    0.0000 C   0  0  0  0  0  0  0  0  0  0  0  0
   -0.8805    6.4680    0.0000 C   0  0  0  0  0  0  0  0  0  0  0  0
   -1.2687    7.9169    0.0000 C   0  0  0  0  0  0  0  0  0  0  0  0
   -1.6569    9.3658    0.0000 C   0  0  0  0  0  0  0  0  0  0  0  0
   -2.0452   10.8147    0.0000 C   0  0  0  0  0  0  0  0  0  0  0  0
   -2.4334   12.2635    0.0000 C   0  0  0  0  0  0  0  0  0  0  0  0
   -2.8216   13.7124    0.0000 C   0  0  0  0  0  0  0  0  0  0  0  0
    0.5684    6.8562    0.0000 C   0  0  0  0  0  0  0  0  0  0  0  0
    2.0173    7.2444    0.0000 C   0  0  0  0  0  0  0  0  0  0  0  0
    0.9566    5.4073    0.0000 C   0  0  0  0  0  0  0  0  0  0  0  0
    1.3449    3.9584    0.0000 C   0  0  0  0  0  0  0  0  0  0  0  0
    1.7331    2.5095    0.0000 C   0  0  0  0  0  0  0  0  0  0  0  0
    2.1213    1.0607    0.0000 C   0  0  0  0  0  0  0  0  0  0  0  0
    1.0607   -0.0000    0.0000 C   0  0  0  0  0  0  0  0  0  0  0  0
    3.5702    0.6724    0.0000 C   0  0  0  0  0  0  0  0  0  0  0  0
    5.0191    0.2842    0.0000 C   0  0  0  0  0  0  0  0  0  0  0  0
    5.4073    1.7331    0.0000 C   0  0  0  0  0  0  0  0  0  0  0  0
    3.9584    2.1213    0.0000 C   0  0  0  0  0  0  0  0  0  0  0  0
   -0.9560    1.0241    0.0000 H   0  0  0  0  0  0  0  0  0  0  0  0
   -2.6136    2.8978    0.0000 H   0  0  0  0  0  0  0  0  0  0  0  0
    0.8832    2.6494    0.0000 H   0  0  0  0  0  0  0  0  0  0  0  0
    0.3048    5.0330    0.0000 H   0  0  0  0  0  0  0  0  0  0  0  0
   -1.9411    4.6309    0.0000 H   0  0  0  0  0  0  0  0  0  0  0  0
   -2.3294    6.0798    0.0000 H   0  0  0  0  0  0  0  0  0  0  0  0
   -2.7176    7.5286    0.0000 H   0  0  0  0  0  0  0  0  0  0  0  0
    0.1220    8.4788    0.0000 H   0  0  0  0  0  0  0  0  0  0  0  0
   -3.1058    8.9775    0.0000 H   0  0  0  0  0  0  0  0  0  0  0  0
   -0.2081    9.7540    0.0000 H   0  0  0  0  0  0  0  0  0  0  0  0
   -0.5963   11.2029    0.0000 H   0  0  0  0  0  0  0  0  0  0  0  0
   -3.4941   10.4264    0.0000 H   0  0  0  0  0  0  0  0  0  0  0  0
   -3.8823   11.8753    0.0000 H   0  0  0  0  0  0  0  0  0  0  0  0
   -0.9845   12.6518    0.0000 H   0  0  0  0  0  0  0  0  0  0  0  0
   -3.2099   15.1613    0.0000 H   0  0  0  0  0  0  0  0  0  0  0  0
   -1.3727   14.1007    0.0000 H   0  0  0  0  0  0  0  0  0  0  0  0
   -4.2705   13.3242    0.0000 H   0  0  0  0  0  0  0  0  0  0  0  0
    0.3597    8.3416    0.0000 H   0  0  0  0  0  0  0  0  0  0  0  0
    3.4662    7.6327    0.0000 H   0  0  0  0  0  0  0  0  0  0  0  0
    1.6291    8.6933    0.0000 H   0  0  0  0  0  0  0  0  0  0  0  0
    2.5792    5.8537    0.0000 H   0  0  0  0  0  0  0  0  0  0  0  0
   -0.3553    4.6800    0.0000 H   0  0  0  0  0  0  0  0  0  0  0  0
    2.4420    5.6160    0.0000 H   0  0  0  0  0  0  0  0  0  0  0  0
    2.7938    4.3467    0.0000 H   0  0  0  0  0  0  0  0  0  0  0  0
    0.0330    3.2312    0.0000 H   0  0  0  0  0  0  0  0  0  0  0  0
    0.2842    2.1213    0.0000 H   0  0  0  0  0  0  0  0  0  0  0  0
    3.1239    3.0715    0.0000 H   0  0  0  0  0  0  0  0  0  0  0  0
   -0.4247    0.2087    0.0000 H   0  0  0  0  0  0  0  0  0  0  0  0
    1.4489   -1.4489    0.0000 H   0  0  0  0  0  0  0  0  0  0  0  0
    3.1820   -0.7765    0.0000 H   0  0  0  0  0  0  0  0  0  0  0  0
    4.6309   -1.1647    0.0000 H   0  0  0  0  0  0  0  0  0  0  0  0
    6.4680   -0.1040    0.0000 H   0  0  0  0  0  0  0  0  0  0  0  0
    6.8562    1.3449    0.0000 H   0  0  0  0  0  0  0  0  0  0  0  0
    5.7956    3.1820    0.0000 H   0  0  0  0  0  0  0  0  0  0  0  0
    4.3467    3.5702    0.0000 H   0  0  0  0  0  0  0  0  0  0  0  0
    2.7450    3.0031    0.0000 H   0  0  0  0  0  0  0  0  0  0  0  0
  1  2  2  3
  2  3  1  0
  3  4  1  0
  4  5  1  0
  5  6  1  0
  6  7  1  0
  7  8  1  0
  8  9  1  0
  4 10  1  0
 10 11  1  0
 10 12  1  0
 12 13  1  0
 13 14  1  0
 14 15  1  0
 15 16  2  3
 15 17  1  0
 17 18  1  0
 18 19  1  0
 19 20  1  0
 20 17  1  0
  1 21  1  0
  1 22  1  0
  2 23  1  0
  3 24  1  0
  3 25  1  0
  4 26  1  0
  5 27  1  0
  5 28  1  0
  6 29  1  0
  6 30  1  0
  7 31  1  0
  7 32  1  0
  8 33  1  0
  8 34  1  0
  9 35  1  0
  9 36  1  0
  9 37  1  0
 10 38  1  0
 11 39  1  0
 11 40  1  0
 11 41  1  0
 12 42  1  0
 12 43  1  0
 13 44  1  0
 13 45  1  0
 14 46  1  0
 14 47  1  0
 16 48  1  0
 16 49  1  0
 17 50  1  0
 18 51  1  0
 18 52  1  0
 19 53  1  0
 19 54  1  0
 20 55  1  0
 20 56  1  0
M  END
$$$$
