
     RDKit          2D

 36 37  0  0  0  0  0  0  0  0999 V2000
    5.7141    0.6029    0.0000 C   0  0  0  0  0  0  0  0  0  0  0  0
    4.4151   -0.1471    0.0000 C   0  0  0  0  0  0  0  0  0  0  0  0
    3.1160   -0.8971    0.0000 C   0  0  0  0  0  0  0  0  0  0  0  0
    1.8170   -1.6471    0.0000 C   0  0  0  0  0  0  0  0  0  0  0  0
    2.3660    0.4019    0.0000 C   0  0  0  0  0  0  0  0  0  0  0  0
    1.6160    1.7010    0.0000 C   0  0  0  0  0  0  0  0  0  0  0  0
    0.8660    3.0000    0.0000 C   0  0  0  0  0  0  0  0  0  0  0  0
    0.1160    4.2990    0.0000 O   0  0  0  0  0  0  0  0  0  0  0  0
   -0.4330    2.2500    0.0000 O   0  0  0  0  0  0  0  0  0  0  0  0
   -0.4330    0.7500    0.0000 C   0  0  0  0  0  0  0  0  0  0  0  0
    0.8660    0.0000    0.0000 C   0  0  0  0  0  0  0  0  0  0  0  0
   -0.4330   -0.7500    0.0000 C   0  0  0  0  0  0  0  0  0  0  0  0
   -1.7321    0.0000    0.0000 C   0  0  0  0  0  0  0  0  0  0  0  0
   -2.6962   -1.1491    0.0000 C   0  0  0  0  0  0  0  0  0  0  0  0
    7.0131    1.3529    0.0000 H   0  0  0  0  0  0  0  0  0  0  0  0
    6.4641   -0.6962    0.0000 H   0  0  0  0  0  0  0  0  0  0  0  0
    4.9641    1.9019    0.0000 H   0  0  0  0  0  0  0  0  0  0  0  0
    4.7265   -0.8809    0.0000 H   0  0  0  0  0  0  0  0  0  0  0  0
    4.8948   -0.7837    0.0000 H   0  0  0  0  0  0  0  0  0  0  0  0
    3.8660   -2.1962    0.0000 H   0  0  0  0  0  0  0  0  0  0  0  0
    0.5179   -2.3971    0.0000 H   0  0  0  0  0  0  0  0  0  0  0  0
    2.5670   -2.9462    0.0000 H   0  0  0  0  0  0  0  0  0  0  0  0
    1.2309   -0.2663    0.0000 H   0  0  0  0  0  0  0  0  0  0  0  0
    1.1681   -0.5008    0.0000 H   0  0  0  0  0  0  0  0  0  0  0  0
    3.6651    1.1519    0.0000 H   0  0  0  0  0  0  0  0  0  0  0  0
    0.5371    0.6589    0.0000 H   0  0  0  0  0  0  0  0  0  0  0  0
    2.9151    2.4510    0.0000 H   0  0  0  0  0  0  0  0  0  0  0  0
    2.1651    3.7500    0.0000 H   0  0  0  0  0  0  0  0  0  0  0  0
    0.8660    5.5981    0.0000 H   0  0  0  0  0  0  0  0  0  0  0  0
    2.0796    0.8816    0.0000 H   0  0  0  0  0  0  0  0  0  0  0  0
    1.5235   -1.3482    0.0000 H   0  0  0  0  0  0  0  0  0  0  0  0
   -0.4330   -2.2500    0.0000 H   0  0  0  0  0  0  0  0  0  0  0  0
   -2.6962    1.1491    0.0000 H   0  0  0  0  0  0  0  0  0  0  0  0
   -3.6604   -2.2981    0.0000 H   0  0  0  0  0  0  0  0  0  0  0  0
   -3.8453   -0.1849    0.0000 H   0  0  0  0  0  0  0  0  0  0  0  0
   -1.5472   -2.1132    0.0000 H   0  0  0  0  0  0  0  0  0  0  0  0
  1  2  1  0
  2  3  1  0
  3  4  1  0
  3  5  1  0
  5  6  1  0
  6  7  1  0
  7  8  1  0
  7  9  1  0
 10  9  1  6
 10 11  1  0
 11 12  1  0
 12 13  1  0
 13 14  1  0
 12 10  1  0
 13 10  1  0
  1 15  1  0
  1 16  1  0
  1 17  1  0
  2 18  1  0
  2 19  1  0
  3 20  1  1
  4 21  1  0
  4 22  1  0
  4 23  1  0
  5 24  1  0
  5 25  1  0
  6 26  1  0
  6 27  1  0
  7 28  1  6
  8 29  1  0
 11 30  1  0
 11 31  1  0
 12 32  1  6
 13 33  1  6
 14 34  1  0
 14 35  1  0
 14 36  1  0
M  END
$$$$
