
     RDKit          2D

 25 27  0  0  0  0  0  0  0  0999 V2000
   -6.2321    0.0000    0.0000 C   0  0  0  0  0  0  0  0  0  0  0  0
   -4.7321    0.0000    0.0000 C   0  0  0  0  0  0  0  0  0  0  0  0
   -3.2321    0.0000    0.0000 C   0  0  0  0  0  0  0  0  0  0  0  0
   -1.7321    0.0000    0.0000 N   0  0  0  0  0  0  0  0  0  0  0  0
   -0.4330    0.7500    0.0000 C   0  0  0  0  0  0  0  0  0  0  0  0
    0.8660    0.0000    0.0000 O   0  0  0  0  0  0  0  0  0  0  0  0
   -0.4330   -0.7500    0.0000 C   0  0  0  0  0  0  0  0  0  0  0  0
   -0.4330   -2.2500    0.0000 O   0  0  0  0  0  0  0  0  0  0  0  0
    0.8660   -3.0000    0.0000 C   0  0  0  0  0  0  0  0  0  0  0  0
    1.8302   -4.1491    0.0000 C   0  0  0  0  0  0  0  0  0  0  0  0
    0.3530   -4.4095    0.0000 C   0  0  0  0  0  0  0  0  0  0  0  0
    0.3530   -5.9095    0.0000 O   0  0  0  0  0  0  0  0  0  0  0  0
   -7.7321    0.0000    0.0000 H   0  0  0  0  0  0  0  0  0  0  0  0
   -6.2321    1.5000    0.0000 H   0  0  0  0  0  0  0  0  0  0  0  0
   -6.2321   -1.5000    0.0000 H   0  0  0  0  0  0  0  0  0  0  0  0
   -4.7321    1.5000    0.0000 H   0  0  0  0  0  0  0  0  0  0  0  0
   -4.7321   -1.5000    0.0000 H   0  0  0  0  0  0  0  0  0  0  0  0
   -3.2321   -1.5000    0.0000 H   0  0  0  0  0  0  0  0  0  0  0  0
   -3.2321    1.5000    0.0000 H   0  0  0  0  0  0  0  0  0  0  0  0
   -0.4330    2.2500    0.0000 H   0  0  0  0  0  0  0  0  0  0  0  0
    1.8302   -1.8509    0.0000 H   0  0  0  0  0  0  0  0  0  0  0  0
    3.1292   -3.3991    0.0000 H   0  0  0  0  0  0  0  0  0  0  0  0
    2.3432   -5.5586    0.0000 H   0  0  0  0  0  0  0  0  0  0  0  0
   -1.1242   -4.1491    0.0000 H   0  0  0  0  0  0  0  0  0  0  0  0
   -0.9460   -6.6595    0.0000 H   0  0  0  0  0  0  0  0  0  0  0  0
  1  2  1  0
  2  3  1  0
  3  4  1  0
  4  5  1  0
  5  6  1  0
  6  7  1  0
  7  8  1  0
  8  9  1  0
  9 10  1  0
 10 11  1  0
 11 12  1  0
  7  4  1  0
 11  9  1  0
  7  5  1  0
  1 13  1  0
  1 14  1  0
  1 15  1  0
  2 16  1  0
  2 17  1  0
  3 18  1  0
  3 19  1  0
  5 20  1  0
  9 21  1  0
 10 22  1  0
 10 23  1  0
 11 24  1  0
 12 25  1  0
M  END
$$$$
