
     RDKit          2D

 63 68  0  0  0  0  0  0  0  0999 V2000
    3.2395   -1.0567    0.0000 C   0  0  0  0  0  0  0  0  0  0  0  0
    1.7477   -1.2135    0.0000 C   0  0  0  0  0  0  0  0  0  0  0  0
    0.8660    0.0000    0.0000 C   0  0  0  0  0  0  0  0  0  0  0  0
    1.9807    1.0037    0.0000 C   0  0  0  0  0  0  0  0  0  0  0  0
    1.3706    2.3740    0.0000 C   0  0  0  0  0  0  0  0  0  0  0  0
    2.7972    2.8375    0.0000 C   0  0  0  0  0  0  0  0  0  0  0  0
    4.2238    3.3011    0.0000 C   0  0  0  0  0  0  0  0  0  0  0  0
    5.6504    3.7646    0.0000 C   0  0  0  0  0  0  0  0  0  0  0  0
    7.0770    4.2281    0.0000 C   0  0  0  0  0  0  0  0  0  0  0  0
    8.5036    4.6916    0.0000 C   0  0  0  0  0  0  0  0  0  0  0  0
   -0.1211    2.2172    0.0000 C   0  0  0  0  0  0  0  0  0  0  0  0
   -0.4330    0.7500    0.0000 C   0  0  0  0  0  0  0  0  0  0  0  0
   -0.4330   -0.7500    0.0000 C   0  0  0  0  0  0  0  0  0  0  0  0
    0.0800   -2.1595    0.0000 C   0  0  0  0  0  0  0  0  0  0  0  0
    1.4896   -1.6465    0.0000 C   0  0  0  0  0  0  0  0  0  0  0  0
    2.0026   -3.0560    0.0000 C   0  0  0  0  0  0  0  0  0  0  0  0
    2.5156   -4.4656    0.0000 C   0  0  0  0  0  0  0  0  0  0  0  0
    0.5930   -3.5691    0.0000 C   0  0  0  0  0  0  0  0  0  0  0  0
   -0.8165   -4.0821    0.0000 C   0  0  0  0  0  0  0  0  0  0  0  0
   -2.2260   -4.5951    0.0000 C   0  0  0  0  0  0  0  0  0  0  0  0
   -1.9656   -6.0723    0.0000 C   0  0  0  0  0  0  0  0  0  0  0  0
   -2.4786   -7.4819    0.0000 C   0  0  0  0  0  0  0  0  0  0  0  0
   -3.8881   -6.9689    0.0000 C   0  0  0  0  0  0  0  0  0  0  0  0
   -4.8523   -5.8198    0.0000 C   0  0  0  0  0  0  0  0  0  0  0  0
   -3.3751   -5.5593    0.0000 C   0  0  0  0  0  0  0  0  0  0  0  0
    4.2625   -2.1537    0.0000 H   0  0  0  0  0  0  0  0  0  0  0  0
    3.8496    0.3136    0.0000 H   0  0  0  0  0  0  0  0  0  0  0  0
    1.1376   -2.5838    0.0000 H   0  0  0  0  0  0  0  0  0  0  0  0
    2.8624   -0.2098    0.0000 H   0  0  0  0  0  0  0  0  0  0  0  0
    3.3615    1.5898    0.0000 H   0  0  0  0  0  0  0  0  0  0  0  0
    1.0588    3.8412    0.0000 H   0  0  0  0  0  0  0  0  0  0  0  0
    2.3337    4.2641    0.0000 H   0  0  0  0  0  0  0  0  0  0  0  0
    3.4312    1.4781    0.0000 H   0  0  0  0  0  0  0  0  0  0  0  0
    4.6873    1.8745    0.0000 H   0  0  0  0  0  0  0  0  0  0  0  0
    3.7603    4.7276    0.0000 H   0  0  0  0  0  0  0  0  0  0  0  0
    5.1869    5.1912    0.0000 H   0  0  0  0  0  0  0  0  0  0  0  0
    6.1139    2.3380    0.0000 H   0  0  0  0  0  0  0  0  0  0  0  0
    7.5405    2.8015    0.0000 H   0  0  0  0  0  0  0  0  0  0  0  0
    6.6135    5.6547    0.0000 H   0  0  0  0  0  0  0  0  0  0  0  0
    9.9301    5.1552    0.0000 H   0  0  0  0  0  0  0  0  0  0  0  0
    8.0400    6.1182    0.0000 H   0  0  0  0  0  0  0  0  0  0  0  0
    8.9671    3.2651    0.0000 H   0  0  0  0  0  0  0  0  0  0  0  0
   -0.1211    3.7172    0.0000 H   0  0  0  0  0  0  0  0  0  0  0  0
   -1.6129    2.3740    0.0000 H   0  0  0  0  0  0  0  0  0  0  0  0
   -1.9248    0.9068    0.0000 H   0  0  0  0  0  0  0  0  0  0  0  0
   -1.9102   -1.0105    0.0000 H   0  0  0  0  0  0  0  0  0  0  0  0
   -1.3815   -2.4969    0.0000 H   0  0  0  0  0  0  0  0  0  0  0  0
    2.9813   -1.4898    0.0000 H   0  0  0  0  0  0  0  0  0  0  0  0
    1.3328   -0.1547    0.0000 H   0  0  0  0  0  0  0  0  0  0  0  0
    3.4642   -2.7187    0.0000 H   0  0  0  0  0  0  0  0  0  0  0  0
    3.0286   -5.8751    0.0000 H   0  0  0  0  0  0  0  0  0  0  0  0
    3.9252   -3.9526    0.0000 H   0  0  0  0  0  0  0  0  0  0  0  0
    1.1791   -5.1466    0.0000 H   0  0  0  0  0  0  0  0  0  0  0  0
    0.9304   -5.0306    0.0000 H   0  0  0  0  0  0  0  0  0  0  0  0
   -0.1355   -5.4186    0.0000 H   0  0  0  0  0  0  0  0  0  0  0  0
   -1.4975   -2.7456    0.0000 H   0  0  0  0  0  0  0  0  0  0  0  0
   -2.9760   -3.2961    0.0000 H   0  0  0  0  0  0  0  0  0  0  0  0
   -0.4983   -6.3843    0.0000 H   0  0  0  0  0  0  0  0  0  0  0  0
   -2.9916   -8.8914    0.0000 H   0  0  0  0  0  0  0  0  0  0  0  0
   -1.0690   -7.9949    0.0000 H   0  0  0  0  0  0  0  0  0  0  0  0
   -4.7485   -8.1976    0.0000 H   0  0  0  0  0  0  0  0  0  0  0  0
   -6.1513   -6.5698    0.0000 H   0  0  0  0  0  0  0  0  0  0  0  0
   -5.3653   -4.4103    0.0000 H   0  0  0  0  0  0  0  0  0  0  0  0
  1  2  2  3
  2  3  1  0
  3  4  1  0
  4  5  1  0
  5  6  1  0
  6  7  1  0
  7  8  1  0
  8  9  1  0
  9 10  1  0
  5 11  1  0
 11 12  1  0
 12 13  1  0
 13 14  1  0
 14 15  1  0
 15 16  1  0
 16 17  1  0
 16 18  1  0
 18 19  1  0
 19 20  1  0
 20 21  1  0
 21 22  1  0
 22 23  1  0
 23 24  1  0
 24 25  1  0
 12  3  1  0
 18 14  1  0
 25 20  1  0
 13  3  1  0
 25 21  1  0
 25 23  1  0
  1 26  1  0
  1 27  1  0
  2 28  1  0
  4 29  1  0
  4 30  1  0
  5 31  1  0
  6 32  1  0
  6 33  1  0
  7 34  1  0
  7 35  1  0
  8 36  1  0
  8 37  1  0
  9 38  1  0
  9 39  1  0
 10 40  1  0
 10 41  1  0
 10 42  1  0
 11 43  1  0
 11 44  1  0
 12 45  1  0
 13 46  1  0
 14 47  1  0
 15 48  1  0
 15 49  1  0
 16 50  1  0
 17 51  1  0
 17 52  1  0
 17 53  1  0
 18 54  1  0
 19 55  1  0
 19 56  1  0
 20 57  1  0
 21 58  1  0
 22 59  1  0
 22 60  1  0
 23 61  1  0
 24 62  1  0
 24 63  1  0
M  END
$$$$
