
     RDKit          2D

 41 44  0  0  0  0  0  0  0  0999 V2000
   -0.4330    2.2500    0.0000 O   0  0  0  0  0  0  0  0  0  0  0  0
   -0.4330    0.7500    0.0000 C   0  0  0  0  0  0  0  0  0  0  0  0
    0.8660    0.0000    0.0000 O   0  0  0  0  0  0  0  0  0  0  0  0
   -0.4330   -0.7500    0.0000 C   0  0  0  0  0  0  0  0  0  0  0  0
   -1.7321   -1.5000    0.0000 C   0  0  0  0  0  0  0  0  0  0  0  0
   -3.2093   -1.7605    0.0000 F   0  0  0  0  0  0  0  0  0  0  0  0
   -1.2190   -2.9095    0.0000 C   0  0  0  0  0  0  0  0  0  0  0  0
   -0.7060   -4.3191    0.0000 C   0  0  0  0  0  0  0  0  0  0  0  0
   -0.1930   -5.7286    0.0000 C   0  0  0  0  0  0  0  0  0  0  0  0
    0.3201   -7.1382    0.0000 C   0  0  0  0  0  0  0  0  0  0  0  0
    0.8331   -8.5477    0.0000 C   0  0  0  0  0  0  0  0  0  0  0  0
    1.3461   -9.9572    0.0000 N   0  0  0  0  0  0  0  0  0  0  0  0
    2.8233  -10.2177    0.0000 C   0  0  0  0  0  0  0  0  0  0  0  0
    4.3006  -10.4782    0.0000 C   0  0  0  0  0  0  0  0  0  0  0  0
    5.7778  -10.7387    0.0000 C   0  0  0  0  0  0  0  0  0  0  0  0
    7.0768  -11.4887    0.0000 C   0  0  0  0  0  0  0  0  0  0  0  0
    5.7778  -12.2387    0.0000 C   0  0  0  0  0  0  0  0  0  0  0  0
   -1.7321    0.0000    0.0000 C   0  0  0  0  0  0  0  0  0  0  0  0
   -3.0311    0.7500    0.0000 O   0  0  0  0  0  0  0  0  0  0  0  0
    0.8660    3.0000    0.0000 H   0  0  0  0  0  0  0  0  0  0  0  0
   -2.6286   -3.4226    0.0000 H   0  0  0  0  0  0  0  0  0  0  0  0
    0.1905   -2.3965    0.0000 H   0  0  0  0  0  0  0  0  0  0  0  0
    0.7035   -3.8060    0.0000 H   0  0  0  0  0  0  0  0  0  0  0  0
   -2.1155   -4.8321    0.0000 H   0  0  0  0  0  0  0  0  0  0  0  0
   -1.6025   -6.2416    0.0000 H   0  0  0  0  0  0  0  0  0  0  0  0
    1.2166   -5.2156    0.0000 H   0  0  0  0  0  0  0  0  0  0  0  0
    1.7296   -6.6251    0.0000 H   0  0  0  0  0  0  0  0  0  0  0  0
   -1.0895   -7.6512    0.0000 H   0  0  0  0  0  0  0  0  0  0  0  0
   -0.5764   -9.0607    0.0000 H   0  0  0  0  0  0  0  0  0  0  0  0
    2.2426   -8.0347    0.0000 H   0  0  0  0  0  0  0  0  0  0  0  0
    0.3819  -11.1063    0.0000 H   0  0  0  0  0  0  0  0  0  0  0  0
    3.0838   -8.7405    0.0000 H   0  0  0  0  0  0  0  0  0  0  0  0
    2.5629  -11.6949    0.0000 H   0  0  0  0  0  0  0  0  0  0  0  0
    4.5610   -9.0010    0.0000 H   0  0  0  0  0  0  0  0  0  0  0  0
    3.9058  -11.7692    0.0000 H   0  0  0  0  0  0  0  0  0  0  0  0
    6.2908   -9.3291    0.0000 H   0  0  0  0  0  0  0  0  0  0  0  0
    8.0410  -10.3396    0.0000 H   0  0  0  0  0  0  0  0  0  0  0  0
    8.0410  -12.6377    0.0000 H   0  0  0  0  0  0  0  0  0  0  0  0
    6.2908  -13.6482    0.0000 H   0  0  0  0  0  0  0  0  0  0  0  0
    4.4868  -12.6334    0.0000 H   0  0  0  0  0  0  0  0  0  0  0  0
   -3.0311    2.2500    0.0000 H   0  0  0  0  0  0  0  0  0  0  0  0
  1  2  1  0
  2  3  1  0
  3  4  1  0
  4  5  1  0
  5  6  1  0
  5  7  1  0
  7  8  1  0
  8  9  1  0
  9 10  1  0
 10 11  1  0
 11 12  1  0
 12 13  1  0
 13 14  1  0
 14 15  1  0
 15 16  1  0
 16 17  1  0
  5 18  1  0
 18 19  1  0
  4  2  1  0
 17 15  1  0
 18  2  1  0
 18  4  1  0
  1 20  1  0
  7 21  1  0
  7 22  1  0
  8 23  1  0
  8 24  1  0
  9 25  1  0
  9 26  1  0
 10 27  1  0
 10 28  1  0
 11 29  1  0
 11 30  1  0
 12 31  1  0
 13 32  1  0
 13 33  1  0
 14 34  1  0
 14 35  1  0
 15 36  1  0
 16 37  1  0
 16 38  1  0
 17 39  1  0
 17 40  1  0
 19 41  1  0
M  END
$$$$
