
     RDKit          2D

 34 38  0  0  0  0  0  0  0  0999 V2000
    5.2358    3.1867    0.0000 C   0  0  0  0  0  0  0  0  0  0  0  0
    4.2716    2.0377    0.0000 C   0  0  0  0  0  0  0  0  0  0  0  0
    2.7944    2.2981    0.0000 C   0  0  0  0  0  0  0  0  0  0  0  0
    1.8302    1.1491    0.0000 C   0  0  0  0  0  0  0  0  0  0  0  0
    0.8660    0.0000    0.0000 C   0  0  0  0  0  0  0  0  0  0  0  0
   -0.4330    0.7500    0.0000 C   0  0  0  0  0  0  0  0  0  0  0  0
   -0.4330   -0.7500    0.0000 C   0  0  0  0  0  0  0  0  0  0  0  0
   -1.7321   -1.5000    0.0000 C   0  0  0  0  0  0  0  0  0  0  0  0
   -1.7321   -3.0000    0.0000 C   0  0  0  0  0  0  0  0  0  0  0  0
   -3.2093   -3.2605    0.0000 N   0  0  0  0  0  0  0  0  0  0  0  0
   -3.7223   -4.6700    0.0000 C   0  0  0  0  0  0  0  0  0  0  0  0
   -5.1995   -4.4095    0.0000 C   0  0  0  0  0  0  0  0  0  0  0  0
   -6.1637   -5.5586    0.0000 C   0  0  0  0  0  0  0  0  0  0  0  0
   -4.6865   -5.8191    0.0000 C   0  0  0  0  0  0  0  0  0  0  0  0
   -0.4330   -2.2500    0.0000 C   0  0  0  0  0  0  0  0  0  0  0  0
    6.2000    4.3358    0.0000 H   0  0  0  0  0  0  0  0  0  0  0  0
    6.3848    2.2225    0.0000 H   0  0  0  0  0  0  0  0  0  0  0  0
    4.0867    4.1509    0.0000 H   0  0  0  0  0  0  0  0  0  0  0  0
    4.7846    0.6281    0.0000 H   0  0  0  0  0  0  0  0  0  0  0  0
    2.2814    3.7077    0.0000 H   0  0  0  0  0  0  0  0  0  0  0  0
    0.9095    2.1364    0.0000 H   0  0  0  0  0  0  0  0  0  0  0  0
    2.9793    0.1849    0.0000 H   0  0  0  0  0  0  0  0  0  0  0  0
    1.8302   -1.1491    0.0000 H   0  0  0  0  0  0  0  0  0  0  0  0
   -1.9102    1.0105    0.0000 H   0  0  0  0  0  0  0  0  0  0  0  0
   -0.1294    2.0654    0.0000 H   0  0  0  0  0  0  0  0  0  0  0  0
   -3.0311   -0.7500    0.0000 H   0  0  0  0  0  0  0  0  0  0  0  0
   -1.2190   -4.4095    0.0000 H   0  0  0  0  0  0  0  0  0  0  0  0
   -4.1734   -2.1114    0.0000 H   0  0  0  0  0  0  0  0  0  0  0  0
   -2.4233   -5.4200    0.0000 H   0  0  0  0  0  0  0  0  0  0  0  0
   -5.7125   -3.0000    0.0000 H   0  0  0  0  0  0  0  0  0  0  0  0
   -7.4627   -4.8086    0.0000 H   0  0  0  0  0  0  0  0  0  0  0  0
   -6.6767   -6.9681    0.0000 H   0  0  0  0  0  0  0  0  0  0  0  0
   -4.1734   -7.2286    0.0000 H   0  0  0  0  0  0  0  0  0  0  0  0
    0.8660   -3.0000    0.0000 H   0  0  0  0  0  0  0  0  0  0  0  0
  1  2  1  0
  2  3  2  3
  3  4  1  0
  4  5  1  0
  5  6  1  0
  7  6  1  1
  7  8  1  0
  8  9  1  0
  9 10  1  0
 10 11  1  0
 11 12  1  0
 12 13  1  0
 13 14  1  0
  9 15  1  0
  7  5  1  0
 15  8  1  0
 15  7  1  0
 14 11  1  0
 14 12  1  0
  1 16  1  0
  1 17  1  0
  1 18  1  0
  2 19  1  0
  3 20  1  0
  4 21  1  0
  4 22  1  0
  5 23  1  6
  6 24  1  0
  6 25  1  0
  8 26  1  1
  9 27  1  6
 10 28  1  0
 11 29  1  6
 12 30  1  1
 13 31  1  0
 13 32  1  0
 14 33  1  1
 15 34  1  1
M  END
$$$$
