
     RDKit          3D

 14 16  0  0  0  0  0  0  0  0999 V2000
   14.9660  -35.6173   -5.0555 O   0  0  0  0  0  0  0  0  0  0  0  0
   14.0617  -35.2547   -4.2679 C   0  0  0  0  0  0  0  0  0  0  0  0
   14.1180  -34.0039   -3.7036 N   0  0  0  0  0  0  0  0  0  0  0  0
   14.7639  -32.1442   -5.2499 C   0  0  0  0  0  0  0  0  0  0  0  0
   14.9659  -31.1310   -4.0722 C   0  0  0  0  0  0  0  0  0  0  0  0
   14.9820  -29.5618   -3.9926 C   0  0  0  0  0  0  0  0  0  0  0  0
   13.6323  -32.8682   -4.4487 C   0  0  0  0  0  0  0  0  0  0  0  0
   14.7670  -29.0421   -2.5372 C   0  0  0  0  0  0  0  0  0  0  0  0
   14.2142  -29.6390   -1.5549 C   0  0  0  0  0  0  0  0  0  0  0  0
   15.9818  -31.7025   -3.0569 C   0  0  0  0  0  0  0  0  0  0  0  0
   13.9664  -31.1247   -1.7190 C   0  0  0  0  0  0  0  0  0  0  0  0
   17.3771  -31.1472   -2.9598 C   0  0  0  0  0  0  0  0  0  0  0  0
   15.4035  -31.7737   -1.6938 C   0  0  0  0  0  0  0  0  0  0  0  0
   13.1366  -31.4010   -3.4276 P   0  0  0  0  0  0  0  0  0  0  0  0
  2  1  2  0
  3  2  1  0
  5  4  1  0
  6  5  1  0
  7  3  1  0
  7  4  1  0
  8  6  1  0
  9  8  2  0
 10  5  1  0
 11  9  1  0
 12 10  1  0
 13 10  1  0
 13 11  1  0
 14  5  1  0
 14  7  1  0
 14 11  1  0
M  END
$$$$
