
     RDKit          2D

 27 33  0  0  0  0  0  0  0  0999 V2000
   -0.0250   -3.2054    0.0000 C   0  0  0  0  0  0  0  0  0  0  0  0
    0.9091   -2.0318    0.0000 N   0  0  0  0  0  0  0  0  0  0  0  0
    0.8660    0.0000    0.0000 C   0  0  0  0  0  0  0  0  0  0  0  0
   -0.4330    0.7500    0.0000 C   0  0  0  0  0  0  0  0  0  0  0  0
   -1.7321    0.0000    0.0000 C   0  0  0  0  0  0  0  0  0  0  0  0
   -2.9048    0.9352    0.0000 C   0  0  0  0  0  0  0  0  0  0  0  0
   -4.3672    0.6015    0.0000 N   0  0  0  0  0  0  0  0  0  0  0  0
   -5.0180   -0.7500    0.0000 C   0  0  0  0  0  0  0  0  0  0  0  0
   -4.3672   -2.1015    0.0000 C   0  0  0  0  0  0  0  0  0  0  0  0
   -3.7164   -0.7500    0.0000 N   0  0  0  0  0  0  0  0  0  0  0  0
   -2.9048   -2.4352    0.0000 C   0  0  0  0  0  0  0  0  0  0  0  0
   -1.5085   -2.9832    0.0000 C   0  0  0  0  0  0  0  0  0  0  0  0
   -1.7321   -1.5000    0.0000 C   0  0  0  0  0  0  0  0  0  0  0  0
   -0.4330   -0.7500    0.0000 C   0  0  0  0  0  0  0  0  0  0  0  0
   -0.1842   -3.9865    0.0000 H   0  0  0  0  0  0  0  0  0  0  0  0
    1.2930   -3.9216    0.0000 H   0  0  0  0  0  0  0  0  0  0  0  0
    2.3926   -2.2540    0.0000 H   0  0  0  0  0  0  0  0  0  0  0  0
    2.3660    0.0000    0.0000 H   0  0  0  0  0  0  0  0  0  0  0  0
   -0.4330    2.2500    0.0000 H   0  0  0  0  0  0  0  0  0  0  0  0
   -1.7321    1.8705    0.0000 H   0  0  0  0  0  0  0  0  0  0  0  0
   -3.5556    2.2867    0.0000 H   0  0  0  0  0  0  0  0  0  0  0  0
   -6.1908    0.1852    0.0000 H   0  0  0  0  0  0  0  0  0  0  0  0
   -6.1908   -1.6852    0.0000 H   0  0  0  0  0  0  0  0  0  0  0  0
   -5.3024   -3.2742    0.0000 H   0  0  0  0  0  0  0  0  0  0  0  0
   -2.2164   -0.7500    0.0000 H   0  0  0  0  0  0  0  0  0  0  0  0
   -3.3469   -3.8686    0.0000 H   0  0  0  0  0  0  0  0  0  0  0  0
   -1.0911   -3.6624    0.0000 H   0  0  0  0  0  0  0  0  0  0  0  0
  1  2  1  0
  2  3  1  0
  3  4  1  0
  4  5  1  0
  5  6  1  0
  6  7  1  0
  7  8  1  0
  8  9  1  0
  9 10  1  0
  9 11  1  0
 11 12  1  0
 12 13  1  0
 13 14  1  0
 12  1  1  0
 14  3  1  0
 14  4  1  0
 13  5  1  0
 14  5  1  0
 10  7  1  0
 13 11  1  0
  1 15  1  0
  1 16  1  0
  2 17  1  0
  3 18  1  0
  4 19  1  0
  6 20  1  0
  6 21  1  0
  8 22  1  0
  8 23  1  0
  9 24  1  0
 10 25  1  0
 11 26  1  0
 12 27  1  0
M  END
$$$$
