
     RDKit          2D

 35 37  0  0  0  0  0  0  0  0999 V2000
    3.0460    1.6571    0.0000 O   0  0  0  0  0  0  0  0  0  0  0  0
    2.3952    0.3056    0.0000 C   0  0  0  0  0  0  0  0  0  0  0  0
    3.6131   -0.5700    0.0000 O   0  0  0  0  0  0  0  0  0  0  0  0
    2.2458   -1.1869    0.0000 C   0  0  0  0  0  0  0  0  0  0  0  0
    0.7500   -1.2990    0.0000 C   0  0  0  0  0  0  0  0  0  0  0  0
    1.5000    0.0000    0.0000 C   0  0  0  0  0  0  0  0  0  0  0  0
    0.7500    1.2990    0.0000 C   0  0  0  0  0  0  0  0  0  0  0  0
   -0.7500    1.2990    0.0000 C   0  0  0  0  0  0  0  0  0  0  0  0
   -1.5000    0.0000    0.0000 C   0  0  0  0  0  0  0  0  0  0  0  0
   -0.7500   -1.2990    0.0000 C   0  0  0  0  0  0  0  0  0  0  0  0
   -1.6852   -2.4718    0.0000 C   0  0  0  0  0  0  0  0  0  0  0  0
   -1.3515   -3.9342    0.0000 C   0  0  0  0  0  0  0  0  0  0  0  0
    0.0000   -4.5850    0.0000 C   0  0  0  0  0  0  0  0  0  0  0  0
    1.3515   -3.9342    0.0000 C   0  0  0  0  0  0  0  0  0  0  0  0
    1.6852   -2.4718    0.0000 C   0  0  0  0  0  0  0  0  0  0  0  0
    4.5418    1.7692    0.0000 H   0  0  0  0  0  0  0  0  0  0  0  0
    1.7028    0.7008    0.0000 H   0  0  0  0  0  0  0  0  0  0  0  0
    2.7904   -2.5846    0.0000 H   0  0  0  0  0  0  0  0  0  0  0  0
    2.0056    1.2518    0.0000 H   0  0  0  0  0  0  0  0  0  0  0  0
    2.8482   -0.6575    0.0000 H   0  0  0  0  0  0  0  0  0  0  0  0
    1.5000    2.5981    0.0000 H   0  0  0  0  0  0  0  0  0  0  0  0
   -1.5000    2.5981    0.0000 H   0  0  0  0  0  0  0  0  0  0  0  0
   -2.7580   -0.8169    0.0000 H   0  0  0  0  0  0  0  0  0  0  0  0
   -2.6491    0.9642    0.0000 H   0  0  0  0  0  0  0  0  0  0  0  0
   -0.3079   -2.7324    0.0000 H   0  0  0  0  0  0  0  0  0  0  0  0
   -2.7564   -1.4218    0.0000 H   0  0  0  0  0  0  0  0  0  0  0  0
   -3.1059   -2.9530    0.0000 H   0  0  0  0  0  0  0  0  0  0  0  0
   -2.8403   -4.1170    0.0000 H   0  0  0  0  0  0  0  0  0  0  0  0
   -1.8610   -5.3450    0.0000 H   0  0  0  0  0  0  0  0  0  0  0  0
   -0.7853   -5.8630    0.0000 H   0  0  0  0  0  0  0  0  0  0  0  0
    0.7853   -5.8630    0.0000 H   0  0  0  0  0  0  0  0  0  0  0  0
    1.8610   -5.3450    0.0000 H   0  0  0  0  0  0  0  0  0  0  0  0
    2.8403   -4.1170    0.0000 H   0  0  0  0  0  0  0  0  0  0  0  0
    3.0367   -3.1226    0.0000 H   0  0  0  0  0  0  0  0  0  0  0  0
    1.7152   -3.9715    0.0000 H   0  0  0  0  0  0  0  0  0  0  0  0
  1  2  1  0
  2  3  1  0
  3  4  1  0
  4  5  1  0
  5  6  1  0
  6  7  1  0
  7  8  2  0
  8  9  1  0
  9 10  1  0
 10 11  1  0
 11 12  1  0
 12 13  1  0
 13 14  1  0
 14 15  1  0
  4  2  1  0
 10  5  1  0
 15  5  1  0
  1 16  1  0
  2 17  1  0
  4 18  1  0
  6 19  1  0
  6 20  1  0
  7 21  1  0
  8 22  1  0
  9 23  1  0
  9 24  1  0
 10 25  1  0
 11 26  1  0
 11 27  1  0
 12 28  1  0
 12 29  1  0
 13 30  1  0
 13 31  1  0
 14 32  1  0
 14 33  1  0
 15 34  1  0
 15 35  1  0
M  END
$$$$
