
     RDKit          2D

 91104  0  0  0  0  0  0  0  0999 V2000
    5.4499   -7.1402    0.0000 C   0  0  0  0  0  0  0  0  0  0  0  0
    5.3751   -5.6421    0.0000 N   0  0  0  0  0  0  0  0  0  0  0  0
    6.6351   -4.8283    0.0000 C   0  0  0  0  0  0  0  0  0  0  0  0
    4.0403   -4.9578    0.0000 C   0  0  0  0  0  0  0  0  0  0  0  0
    2.7055   -4.2735    0.0000 C   0  0  0  0  0  0  0  0  0  0  0  0
    3.1476   -2.8401    0.0000 C   0  0  0  0  0  0  0  0  0  0  0  0
    2.8138   -1.3777    0.0000 C   0  0  0  0  0  0  0  0  0  0  0  0
    1.3515   -1.7115    0.0000 C   0  0  0  0  0  0  0  0  0  0  0  0
    1.6852   -3.1739    0.0000 C   0  0  0  0  0  0  0  0  0  0  0  0
    0.5853   -3.5158    0.0000 C   0  0  0  0  0  0  0  0  0  0  0  0
    0.1612   -2.4546    0.0000 C   0  0  0  0  0  0  0  0  0  0  0  0
   -0.9330   -2.7846    0.0000 C   0  0  0  0  0  0  0  0  0  0  0  0
   -1.3515   -1.7115    0.0000 C   0  0  0  0  0  0  0  0  0  0  0  0
   -0.8879   -3.1381    0.0000 C   0  0  0  0  0  0  0  0  0  0  0  0
   -0.8879   -4.6381    0.0000 C   0  0  0  0  0  0  0  0  0  0  0  0
   -0.1379   -5.9371    0.0000 C   0  0  0  0  0  0  0  0  0  0  0  0
    0.6121   -4.6381    0.0000 C   0  0  0  0  0  0  0  0  0  0  0  0
    0.6121   -3.1381    0.0000 C   0  0  0  0  0  0  0  0  0  0  0  0
    2.0936   -3.3727    0.0000 N   0  0  0  0  0  0  0  0  0  0  0  0
    3.0376   -2.2070    0.0000 C   0  0  0  0  0  0  0  0  0  0  0  0
    3.9816   -1.0413    0.0000 C   0  0  0  0  0  0  0  0  0  0  0  0
    5.1473   -1.9853    0.0000 C   0  0  0  0  0  0  0  0  0  0  0  0
    6.0913   -0.8195    0.0000 C   0  0  0  0  0  0  0  0  0  0  0  0
    7.5830   -0.6628    0.0000 S   0  0  0  0  0  0  0  0  0  0  0  0
    4.9255    0.1244    0.0000 O   0  0  0  0  0  0  0  0  0  0  0  0
   -0.0000   -1.0607    0.0000 C   0  0  0  0  0  0  0  0  0  0  0  0
    1.0607    0.0000    0.0000 O   0  0  0  0  0  0  0  0  0  0  0  0
    0.0000    1.0607    0.0000 C   0  0  0  0  0  0  0  0  0  0  0  0
   -1.0607    0.0000    0.0000 C   0  0  0  0  0  0  0  0  0  0  0  0
   -2.1213   -1.0607    0.0000 S   0  0  0  0  0  4  0  0  0  0  0  0
   -0.9556   -2.0046    0.0000 O   0  0  0  0  0  0  0  0  0  0  0  0
   -2.9383   -2.3187    0.0000 C   0  0  0  0  0  0  0  0  0  0  0  0
   -4.3872   -1.9304    0.0000 C   0  0  0  0  0  0  0  0  0  0  0  0
   -4.6218   -3.4120    0.0000 F   0  0  0  0  0  0  0  0  0  0  0  0
   -4.4657   -0.4325    0.0000 C   0  0  0  0  0  0  0  0  0  0  0  0
   -4.2310    1.0490    0.0000 C   0  0  0  0  0  0  0  0  0  0  0  0
   -3.5038    2.3610    0.0000 C   0  0  0  0  0  0  0  0  0  0  0  0
   -4.2764    3.6467    0.0000 C   0  0  0  0  0  0  0  0  0  0  0  0
   -2.7766    3.6729    0.0000 C   0  0  0  0  0  0  0  0  0  0  0  0
   -2.0494    4.9848    0.0000 C   0  0  0  0  0  0  0  0  0  0  0  0
   -2.8219    6.2706    0.0000 N   0  0  0  0  0  0  0  0  0  0  0  0
   -1.3222    6.2968    0.0000 C   0  0  0  0  0  0  0  0  0  0  0  0
   -0.5496    5.0110    0.0000 O   0  0  0  0  0  0  0  0  0  0  0  0
   -2.0040    2.3871    0.0000 C   0  0  0  0  0  0  0  0  0  0  0  0
   -3.0653    0.1051    0.0000 C   0  0  0  0  0  0  0  0  0  0  0  0
    5.5246   -8.6384    0.0000 H   0  0  0  0  0  0  0  0  0  0  0  0
    6.9480   -7.0655    0.0000 H   0  0  0  0  0  0  0  0  0  0  0  0
    3.9517   -7.2150    0.0000 H   0  0  0  0  0  0  0  0  0  0  0  0
    7.8952   -4.0144    0.0000 H   0  0  0  0  0  0  0  0  0  0  0  0
    7.4490   -6.0883    0.0000 H   0  0  0  0  0  0  0  0  0  0  0  0
    5.9810   -3.4784    0.0000 H   0  0  0  0  0  0  0  0  0  0  0  0
    3.3560   -6.2926    0.0000 H   0  0  0  0  0  0  0  0  0  0  0  0
    4.8822   -3.7163    0.0000 H   0  0  0  0  0  0  0  0  0  0  0  0
    2.1160   -5.6528    0.0000 H   0  0  0  0  0  0  0  0  0  0  0  0
    4.6286   -3.0785    0.0000 H   0  0  0  0  0  0  0  0  0  0  0  0
    2.3043    0.0331    0.0000 H   0  0  0  0  0  0  0  0  0  0  0  0
    4.1520   -0.7000    0.0000 H   0  0  0  0  0  0  0  0  0  0  0  0
    2.0120   -5.1573    0.0000 H   0  0  0  0  0  0  0  0  0  0  0  0
    0.9626   -5.8315    0.0000 H   0  0  0  0  0  0  0  0  0  0  0  0
   -0.2404   -5.7574    0.0000 H   0  0  0  0  0  0  0  0  0  0  0  0
   -2.1015   -4.9975    0.0000 H   0  0  0  0  0  0  0  0  0  0  0  0
   -2.8765   -4.0855    0.0000 H   0  0  0  0  0  0  0  0  0  0  0  0
   -3.1540   -2.8694    0.0000 H   0  0  0  0  0  0  0  0  0  0  0  0
   -2.7157   -1.0878    0.0000 H   0  0  0  0  0  0  0  0  0  0  0  0
   -2.1869   -3.8882    0.0000 H   0  0  0  0  0  0  0  0  0  0  0  0
   -2.1998   -5.3654    0.0000 H   0  0  0  0  0  0  0  0  0  0  0  0
   -1.2870   -6.9013    0.0000 H   0  0  0  0  0  0  0  0  0  0  0  0
    1.0111   -6.9013    0.0000 H   0  0  0  0  0  0  0  0  0  0  0  0
    1.8255   -5.5198    0.0000 H   0  0  0  0  0  0  0  0  0  0  0  0
    3.2258   -4.3567    0.0000 H   0  0  0  0  0  0  0  0  0  0  0  0
    2.1349   -1.0090    0.0000 H   0  0  0  0  0  0  0  0  0  0  0  0
    4.3097   -3.0018    0.0000 H   0  0  0  0  0  0  0  0  0  0  0  0
    2.9396    0.0378    0.0000 H   0  0  0  0  0  0  0  0  0  0  0  0
    6.4194   -2.7801    0.0000 H   0  0  0  0  0  0  0  0  0  0  0  0
    4.3524   -3.2574    0.0000 H   0  0  0  0  0  0  0  0  0  0  0  0
   -1.0607    2.1213    0.0000 H   0  0  0  0  0  0  0  0  0  0  0  0
    1.0607    2.1213    0.0000 H   0  0  0  0  0  0  0  0  0  0  0  0
   -2.1213    1.0607    0.0000 H   0  0  0  0  0  0  0  0  0  0  0  0
    0.5332   -1.8219    0.0000 H   0  0  0  0  0  0  0  0  0  0  0  0
   -2.2343   -3.6432    0.0000 H   0  0  0  0  0  0  0  0  0  0  0  0
   -3.4758   -3.7190    0.0000 H   0  0  0  0  0  0  0  0  0  0  0  0
   -5.8851   -1.8519    0.0000 H   0  0  0  0  0  0  0  0  0  0  0  0
   -5.9636   -0.3540    0.0000 H   0  0  0  0  0  0  0  0  0  0  0  0
   -5.6493    1.5374    0.0000 H   0  0  0  0  0  0  0  0  0  0  0  0
   -5.6767    3.1092    0.0000 H   0  0  0  0  0  0  0  0  0  0  0  0
   -4.5626    5.1192    0.0000 H   0  0  0  0  0  0  0  0  0  0  0  0
   -4.1339    6.9978    0.0000 H   0  0  0  0  0  0  0  0  0  0  0  0
   -0.5949    7.6087    0.0000 H   0  0  0  0  0  0  0  0  0  0  0  0
   -0.6037    2.9247    0.0000 H   0  0  0  0  0  0  0  0  0  0  0  0
   -1.7178    0.9147    0.0000 H   0  0  0  0  0  0  0  0  0  0  0  0
   -2.0046    1.1657    0.0000 H   0  0  0  0  0  0  0  0  0  0  0  0
  1  2  1  0
  2  3  1  0
  2  4  1  0
  4  5  1  0
  5  6  1  0
  6  7  1  0
  7  8  1  0
  8  9  1  0
  9 10  1  0
 10 11  1  0
 11 12  1  0
 12 13  1  0
 13 14  1  0
 14 15  1  0
 15 16  1  0
 16 17  1  0
 17 18  1  0
 18 19  1  0
 19 20  1  0
 20 21  1  0
 21 22  1  0
 22 23  1  0
 23 24  2  0
 23 25  1  0
 13 26  1  0
 26 27  1  0
 27 28  1  0
 28 29  1  0
 29 30  1  0
 30 31  1  0
 30 32  1  0
 32 33  1  0
 33 34  1  0
 33 35  1  0
 35 36  1  0
 36 37  1  0
 37 38  1  0
 38 39  1  0
 39 40  1  0
 40 41  1  0
 41 42  1  0
 42 43  1  0
 39 44  1  0
 36 45  1  0
  9  5  1  0
 18 14  1  0
 25 21  1  0
 29 26  1  0
 45 30  1  0
  9  6  1  0
 17 15  1  0
 45 35  1  0
 18  8  1  0
 39 37  1  0
 42 40  1  0
 26  8  1  0
 44 37  1  0
 43 40  1  0
  1 46  1  0
  1 47  1  0
  1 48  1  0
  3 49  1  0
  3 50  1  0
  3 51  1  0
  4 52  1  0
  4 53  1  0
  5 54  1  0
  6 55  1  0
  7 56  1  0
  7 57  1  0
 10 58  1  0
 10 59  1  0
 11 60  1  0
 11 61  1  0
 12 62  1  0
 12 63  1  0
 13 64  1  0
 14 65  1  0
 15 66  1  0
 16 67  1  0
 16 68  1  0
 17 69  1  0
 19 70  1  0
 20 71  1  0
 20 72  1  0
 21 73  1  0
 22 74  1  0
 22 75  1  0
 28 76  1  0
 28 77  1  0
 29 78  1  0
 31 79  1  0
 32 80  1  0
 32 81  1  0
 33 82  1  0
 35 83  1  0
 36 84  1  0
 38 85  1  0
 38 86  1  0
 41 87  1  0
 42 88  1  0
 44 89  1  0
 44 90  1  0
 45 91  1  0
M  END
$$$$
