
     RDKit          2D

108115  0  0  0  0  0  0  0  0999 V2000
   -6.1181    6.9411    0.0000 C   0  0  0  0  0  0  0  0  0  0  0  0
   -7.5953    7.2016    0.0000 C   0  0  0  0  0  0  0  0  0  0  0  0
   -8.5595    6.0525    0.0000 N   0  0  0  0  0  0  0  0  0  0  0  0
   -8.0464    4.6430    0.0000 C   0  0  0  0  0  0  0  0  0  0  0  0
   -6.5849    4.9803    0.0000 F   0  0  0  0  0  0  0  0  0  0  0  0
   -7.5334    3.2334    0.0000 C   0  0  0  0  0  0  0  0  0  0  0  0
   -7.0204    1.8239    0.0000 N   0  0  0  0  0  0  0  0  0  0  0  0
   -5.8713    0.8597    0.0000 C   0  0  0  0  0  0  0  0  0  0  0  0
   -5.1213   -0.4393    0.0000 S   0  0  0  0  0  0  0  0  0  0  0  0
   -3.6213   -0.4393    0.0000 C   0  0  0  0  0  0  0  0  0  0  0  0
   -2.1213   -0.4393    0.0000 C   0  0  0  0  0  0  0  0  0  0  0  0
   -0.0000   -1.0607    0.0000 C   0  0  0  0  0  0  0  0  0  0  0  0
    1.0607    0.0000    0.0000 C   0  0  0  0  0  0  0  0  0  0  0  0
    0.0000    1.0607    0.0000 C   0  0  0  0  0  0  0  0  0  0  0  0
    0.3338    2.5231    0.0000 C   0  0  0  0  0  0  0  0  0  0  0  0
   -0.6015    3.6958    0.0000 C   0  0  0  0  0  0  0  0  0  0  0  0
    0.7500    4.3466    0.0000 C   0  0  0  0  0  0  0  0  0  0  0  0
   -2.1015    3.6958    0.0000 C   0  0  0  0  0  0  0  0  0  0  0  0
   -3.0367    2.5231    0.0000 C   0  0  0  0  0  0  0  0  0  0  0  0
   -2.1213    1.0607    0.0000 C   0  0  0  0  0  0  0  0  0  0  0  0
   -1.0607    2.1213    0.0000 C   0  0  0  0  0  0  0  0  0  0  0  0
   -1.0607    0.0000    0.0000 C   0  0  0  0  0  0  0  0  0  0  0  0
   -7.2809    0.3467    0.0000 C   0  0  0  0  0  0  0  0  0  0  0  0
   -8.7809    0.3467    0.0000 C   0  0  0  0  0  0  0  0  0  0  0  0
  -10.2809    0.3467    0.0000 C   0  0  0  0  0  0  0  0  0  0  0  0
   -8.7809   -1.1533    0.0000 C   0  0  0  0  0  0  0  0  0  0  0  0
   -8.7809   -2.6533    0.0000 C   0  0  0  0  0  0  0  0  0  0  0  0
   -8.7809   -4.1533    0.0000 C   0  0  0  0  0  0  0  0  0  0  0  0
   -8.7809   -5.6533    0.0000 C   0  0  0  0  0  0  0  0  0  0  0  0
  -10.2809   -5.6533    0.0000 C   0  0  0  0  0  0  0  0  0  0  0  0
  -10.2809   -7.1533    0.0000 C   0  0  0  0  0  0  0  0  0  0  0  0
   -8.7809   -7.1533    0.0000 C   0  0  0  0  0  0  0  0  0  0  0  0
   -8.7809    1.8467    0.0000 C   0  0  0  0  0  0  0  0  0  0  0  0
   -8.7809    3.3467    0.0000 C   0  0  0  0  0  0  0  0  0  0  0  0
   -8.7809    4.8467    0.0000 C   0  0  0  0  0  0  0  0  0  0  0  0
  -10.2809    3.3467    0.0000 C   0  0  0  0  0  0  0  0  0  0  0  0
  -11.7809    3.3467    0.0000 C   0  0  0  0  0  0  0  0  0  0  0  0
  -13.2809    3.3467    0.0000 C   0  0  0  0  0  0  0  0  0  0  0  0
   -8.1083    8.6111    0.0000 C   0  0  0  0  0  0  0  0  0  0  0  0
   -6.6988    9.1241    0.0000 O   0  0  0  0  0  0  0  0  0  0  0  0
   -8.6214   10.0206    0.0000 C   0  0  0  0  0  0  0  0  0  0  0  0
   -7.3223   10.7706    0.0000 C   0  0  0  0  0  0  0  0  0  0  0  0
   -6.5723   12.0697    0.0000 C   0  0  0  0  0  0  0  0  0  0  0  0
   -7.8714   12.8197    0.0000 C   0  0  0  0  0  0  0  0  0  0  0  0
   -8.6214   11.5206    0.0000 C   0  0  0  0  0  0  0  0  0  0  0  0
   -5.1539    8.0902    0.0000 H   0  0  0  0  0  0  0  0  0  0  0  0
   -5.6051    5.5316    0.0000 H   0  0  0  0  0  0  0  0  0  0  0  0
  -10.0367    6.3130    0.0000 H   0  0  0  0  0  0  0  0  0  0  0  0
   -9.4560    4.1299    0.0000 H   0  0  0  0  0  0  0  0  0  0  0  0
   -6.1239    3.7464    0.0000 H   0  0  0  0  0  0  0  0  0  0  0  0
   -8.3262    3.1501    0.0000 H   0  0  0  0  0  0  0  0  0  0  0  0
   -4.7223    1.8239    0.0000 H   0  0  0  0  0  0  0  0  0  0  0  0
   -3.6213   -1.9393    0.0000 H   0  0  0  0  0  0  0  0  0  0  0  0
   -3.6213    1.0607    0.0000 H   0  0  0  0  0  0  0  0  0  0  0  0
   -2.3042   -1.9282    0.0000 H   0  0  0  0  0  0  0  0  0  0  0  0
   -0.0000   -2.5607    0.0000 H   0  0  0  0  0  0  0  0  0  0  0  0
    2.1213    1.0607    0.0000 H   0  0  0  0  0  0  0  0  0  0  0  0
    2.1213   -1.0607    0.0000 H   0  0  0  0  0  0  0  0  0  0  0  0
    1.6852    1.8722    0.0000 H   0  0  0  0  0  0  0  0  0  0  0  0
    1.4050    3.5731    0.0000 H   0  0  0  0  0  0  0  0  0  0  0  0
   -0.9352    5.1582    0.0000 H   0  0  0  0  0  0  0  0  0  0  0  0
    2.1015    4.9975    0.0000 H   0  0  0  0  0  0  0  0  0  0  0  0
    0.0992    5.6981    0.0000 H   0  0  0  0  0  0  0  0  0  0  0  0
    1.5607    3.0846    0.0000 H   0  0  0  0  0  0  0  0  0  0  0  0
   -2.7523    5.0473    0.0000 H   0  0  0  0  0  0  0  0  0  0  0  0
   -4.4991    2.8568    0.0000 H   0  0  0  0  0  0  0  0  0  0  0  0
   -0.6223    3.5558    0.0000 H   0  0  0  0  0  0  0  0  0  0  0  0
   -1.8331    3.4071    0.0000 H   0  0  0  0  0  0  0  0  0  0  0  0
   -2.2427   -0.9235    0.0000 H   0  0  0  0  0  0  0  0  0  0  0  0
   -6.8423   -1.0878    0.0000 H   0  0  0  0  0  0  0  0  0  0  0  0
  -11.7809    0.3467    0.0000 H   0  0  0  0  0  0  0  0  0  0  0  0
  -10.4637    1.8355    0.0000 H   0  0  0  0  0  0  0  0  0  0  0  0
  -10.4637   -1.1421    0.0000 H   0  0  0  0  0  0  0  0  0  0  0  0
  -10.2697   -1.3362    0.0000 H   0  0  0  0  0  0  0  0  0  0  0  0
   -7.2920   -1.3362    0.0000 H   0  0  0  0  0  0  0  0  0  0  0  0
  -10.2809   -2.6533    0.0000 H   0  0  0  0  0  0  0  0  0  0  0  0
   -7.2809   -2.6533    0.0000 H   0  0  0  0  0  0  0  0  0  0  0  0
   -7.2809   -4.1533    0.0000 H   0  0  0  0  0  0  0  0  0  0  0  0
  -10.2697   -3.9705    0.0000 H   0  0  0  0  0  0  0  0  0  0  0  0
   -7.2809   -5.6533    0.0000 H   0  0  0  0  0  0  0  0  0  0  0  0
  -11.7809   -5.6533    0.0000 H   0  0  0  0  0  0  0  0  0  0  0  0
  -10.4637   -4.1645    0.0000 H   0  0  0  0  0  0  0  0  0  0  0  0
  -10.2809   -8.6533    0.0000 H   0  0  0  0  0  0  0  0  0  0  0  0
  -11.7809   -7.1533    0.0000 H   0  0  0  0  0  0  0  0  0  0  0  0
   -7.2809   -7.1533    0.0000 H   0  0  0  0  0  0  0  0  0  0  0  0
   -8.7809   -8.6533    0.0000 H   0  0  0  0  0  0  0  0  0  0  0  0
  -10.2697    2.0295    0.0000 H   0  0  0  0  0  0  0  0  0  0  0  0
   -7.3254    2.2096    0.0000 H   0  0  0  0  0  0  0  0  0  0  0  0
   -7.3254    3.7096    0.0000 H   0  0  0  0  0  0  0  0  0  0  0  0
   -9.1438    6.3021    0.0000 H   0  0  0  0  0  0  0  0  0  0  0  0
  -10.2363    5.2096    0.0000 H   0  0  0  0  0  0  0  0  0  0  0  0
   -7.3805    5.3843    0.0000 H   0  0  0  0  0  0  0  0  0  0  0  0
  -10.2809    4.8467    0.0000 H   0  0  0  0  0  0  0  0  0  0  0  0
  -10.6438    4.8021    0.0000 H   0  0  0  0  0  0  0  0  0  0  0  0
  -11.7809    4.8467    0.0000 H   0  0  0  0  0  0  0  0  0  0  0  0
  -11.7809    1.8467    0.0000 H   0  0  0  0  0  0  0  0  0  0  0  0
  -14.7809    3.3467    0.0000 H   0  0  0  0  0  0  0  0  0  0  0  0
  -13.2809    1.8467    0.0000 H   0  0  0  0  0  0  0  0  0  0  0  0
  -13.2809    4.8467    0.0000 H   0  0  0  0  0  0  0  0  0  0  0  0
   -9.5179    8.0981    0.0000 H   0  0  0  0  0  0  0  0  0  0  0  0
   -6.2602   10.5586    0.0000 H   0  0  0  0  0  0  0  0  0  0  0  0
  -10.0986    9.7602    0.0000 H   0  0  0  0  0  0  0  0  0  0  0  0
   -5.9520   10.1606    0.0000 H   0  0  0  0  0  0  0  0  0  0  0  0
   -5.8223   13.3687    0.0000 H   0  0  0  0  0  0  0  0  0  0  0  0
   -5.2733   11.3197    0.0000 H   0  0  0  0  0  0  0  0  0  0  0  0
   -9.1704   13.5697    0.0000 H   0  0  0  0  0  0  0  0  0  0  0  0
   -7.1214   14.1187    0.0000 H   0  0  0  0  0  0  0  0  0  0  0  0
  -10.0702   11.9089    0.0000 H   0  0  0  0  0  0  0  0  0  0  0  0
  1  2  2  3
  2  3  1  0
  3  4  1  0
  4  5  1  0
  4  6  1  0
  6  7  1  0
  7  8  1  0
  8  9  1  0
  9 10  1  0
 10 11  1  0
 11 12  1  0
 12 13  1  0
 13 14  1  0
 14 15  1  0
 15 16  1  0
 16 17  1  0
 16 18  1  0
 18 19  2  0
 19 20  1  0
 20 21  1  0
 20 22  1  0
  8 23  1  0
 23 24  1  0
 24 25  1  0
 24 26  1  0
 26 27  1  0
 27 28  1  0
 28 29  1  0
 29 30  1  0
 30 31  1  0
 31 32  1  0
 24 33  1  0
 33 34  1  0
 34 35  1  0
 34 36  1  0
 36 37  1  0
 37 38  1  0
  2 39  1  0
 39 40  1  0
 39 41  1  0
 41 42  1  0
 42 43  1  0
 43 44  1  0
 44 45  1  0
 23  7  1  0
 32 29  1  0
 45 41  1  0
 20 11  1  0
 45 42  1  0
 22 12  1  0
 21 14  1  0
 22 14  1  0
  1 46  1  0
  1 47  1  0
  3 48  1  0
  4 49  1  0
  6 50  1  0
  6 51  1  0
  8 52  1  0
 10 53  1  0
 10 54  1  0
 11 55  1  0
 12 56  1  0
 13 57  1  0
 13 58  1  0
 15 59  1  0
 15 60  1  0
 16 61  1  0
 17 62  1  0
 17 63  1  0
 17 64  1  0
 18 65  1  0
 19 66  1  0
 21 67  1  0
 21 68  1  0
 22 69  1  0
 23 70  1  0
 25 71  1  0
 25 72  1  0
 25 73  1  0
 26 74  1  0
 26 75  1  0
 27 76  1  0
 27 77  1  0
 28 78  1  0
 28 79  1  0
 29 80  1  0
 30 81  1  0
 30 82  1  0
 31 83  1  0
 31 84  1  0
 32 85  1  0
 32 86  1  0
 33 87  1  0
 33 88  1  0
 34 89  1  0
 35 90  1  0
 35 91  1  0
 35 92  1  0
 36 93  1  0
 36 94  1  0
 37 95  1  0
 37 96  1  0
 38 97  1  0
 38 98  1  0
 38 99  1  0
 39100  1  0
 40101  1  0
 41102  1  0
 42103  1  0
 43104  1  0
 43105  1  0
 44106  1  0
 44107  1  0
 45108  1  0
M  END
$$$$
