
     RDKit          2D

114120  0  0  0  0  0  0  0  0999 V2000
   -2.2007   -5.8865    0.0000 C   0  0  0  0  0  0  0  0  0  0  0  0
   -1.1588   -4.8075    0.0000 C   0  0  0  0  0  0  0  0  0  0  0  0
    0.2967   -5.1704    0.0000 C   0  0  0  0  0  0  0  0  0  0  0  0
    1.1784   -6.3839    0.0000 C   0  0  0  0  0  0  0  0  0  0  0  0
    2.5487   -6.9940    0.0000 C   0  0  0  0  0  0  0  0  0  0  0  0
    4.0405   -6.8372    0.0000 C   0  0  0  0  0  0  0  0  0  0  0  0
    5.2540   -5.9555    0.0000 C   0  0  0  0  0  0  0  0  0  0  0  0
    5.8641   -4.5852    0.0000 C   0  0  0  0  0  0  0  0  0  0  0  0
    5.7073   -3.0934    0.0000 C   0  0  0  0  0  0  0  0  0  0  0  0
    4.8256   -1.8799    0.0000 C   0  0  0  0  0  0  0  0  0  0  0  0
    3.4553   -1.2698    0.0000 C   0  0  0  0  0  0  0  0  0  0  0  0
    1.9635   -1.4266    0.0000 C   0  0  0  0  0  0  0  0  0  0  0  0
    2.4271    0.0000    0.0000 C   0  0  0  0  0  0  0  0  0  0  0  0
    3.6406    0.8817    0.0000 C   0  0  0  0  0  0  0  0  0  0  0  0
    4.8541    1.7634    0.0000 C   0  0  0  0  0  0  0  0  0  0  0  0
    1.9635    1.4266    0.0000 C   0  0  0  0  0  0  0  0  0  0  0  0
    0.7500    2.3083    0.0000 C   0  0  0  0  0  0  0  0  0  0  0  0
   -0.7500    2.3083    0.0000 C   0  0  0  0  0  0  0  0  0  0  0  0
   -1.9635    3.1899    0.0000 C   0  0  0  0  0  0  0  0  0  0  0  0
   -3.1771    4.0716    0.0000 C   0  0  0  0  0  0  0  0  0  0  0  0
   -3.9271    2.7726    0.0000 C   0  0  0  0  0  0  0  0  0  0  0  0
   -4.6771    1.4735    0.0000 C   0  0  0  0  0  0  0  0  0  0  0  0
   -5.4271    0.1745    0.0000 C   0  0  0  0  0  0  0  0  0  0  0  0
   -4.5474    4.6817    0.0000 C   0  0  0  0  0  0  0  0  0  0  0  0
   -4.3906    6.1735    0.0000 C   0  0  0  0  0  0  0  0  0  0  0  0
   -2.9234    6.4854    0.0000 C   0  0  0  0  0  0  0  0  0  0  0  0
   -2.1734    5.1863    0.0000 C   0  0  0  0  0  0  0  0  0  0  0  0
   -2.6752    8.4264    0.0000 C   0  0  0  0  0  0  0  0  0  0  0  0
   -3.5015    9.6783    0.0000 C   0  0  0  0  0  0  0  0  0  0  0  0
   -4.7534    8.8520    0.0000 C   0  0  0  0  0  0  0  0  0  0  0  0
   -6.2474    8.9864    0.0000 C   0  0  0  0  0  0  0  0  0  0  0  0
   -7.2840    7.9022    0.0000 C   0  0  0  0  0  0  0  0  0  0  0  0
   -7.0826    6.4158    0.0000 O   0  0  0  0  0  0  0  0  0  0  0  0
   -5.7949    5.6464    0.0000 C   0  0  0  0  0  0  0  0  0  0  0  0
   -6.8315    4.5623    0.0000 C   0  0  0  0  0  0  0  0  0  0  0  0
   -7.8681    3.4781    0.0000 C   0  0  0  0  0  0  0  0  0  0  0  0
   -3.9271    7.6001    0.0000 C   0  0  0  0  0  0  0  0  0  0  0  0
   -1.9635    1.4266    0.0000 C   0  0  0  0  0  0  0  0  0  0  0  0
   -2.4271    0.0000    0.0000 C   0  0  0  0  0  0  0  0  0  0  0  0
   -3.9271    0.0000    0.0000 C   0  0  0  0  0  0  0  0  0  0  0  0
   -1.9635   -1.4266    0.0000 C   0  0  0  0  0  0  0  0  0  0  0  0
   -0.7500   -2.3083    0.0000 C   0  0  0  0  0  0  0  0  0  0  0  0
    0.7500   -2.3083    0.0000 C   0  0  0  0  0  0  0  0  0  0  0  0
    0.1399   -3.6786    0.0000 C   0  0  0  0  0  0  0  0  0  0  0  0
   -3.6562   -5.5236    0.0000 H   0  0  0  0  0  0  0  0  0  0  0  0
   -1.7873   -7.3284    0.0000 H   0  0  0  0  0  0  0  0  0  0  0  0
   -1.7449   -3.4267    0.0000 H   0  0  0  0  0  0  0  0  0  0  0  0
   -0.5004   -6.0873    0.0000 H   0  0  0  0  0  0  0  0  0  0  0  0
    0.0600   -6.8587    0.0000 H   0  0  0  0  0  0  0  0  0  0  0  0
    0.9465   -7.5766    0.0000 H   0  0  0  0  0  0  0  0  0  0  0  0
    1.8175   -7.9644    0.0000 H   0  0  0  0  0  0  0  0  0  0  0  0
    2.9442   -8.1428    0.0000 H   0  0  0  0  0  0  0  0  0  0  0  0
    3.8924   -8.0431    0.0000 H   0  0  0  0  0  0  0  0  0  0  0  0
    4.9574   -7.6343    0.0000 H   0  0  0  0  0  0  0  0  0  0  0  0
    5.7288   -7.0739    0.0000 H   0  0  0  0  0  0  0  0  0  0  0  0
    6.4467   -6.1874    0.0000 H   0  0  0  0  0  0  0  0  0  0  0  0
    6.8345   -5.3164    0.0000 H   0  0  0  0  0  0  0  0  0  0  0  0
    7.0129   -4.1897    0.0000 H   0  0  0  0  0  0  0  0  0  0  0  0
    6.9133   -3.2415    0.0000 H   0  0  0  0  0  0  0  0  0  0  0  0
    6.5044   -2.1765    0.0000 H   0  0  0  0  0  0  0  0  0  0  0  0
    5.9440   -1.4051    0.0000 H   0  0  0  0  0  0  0  0  0  0  0  0
    5.0833   -0.5547    0.0000 H   0  0  0  0  0  0  0  0  0  0  0  0
    4.2677   -0.1916    0.0000 H   0  0  0  0  0  0  0  0  0  0  0  0
    3.3247    0.2245    0.0000 H   0  0  0  0  0  0  0  0  0  0  0  0
    3.1292   -0.4826    0.0000 H   0  0  0  0  0  0  0  0  0  0  0  0
    3.8760   -0.3881    0.0000 H   0  0  0  0  0  0  0  0  0  0  0  0
    3.0787    2.2725    0.0000 H   0  0  0  0  0  0  0  0  0  0  0  0
    2.7589    2.0952    0.0000 H   0  0  0  0  0  0  0  0  0  0  0  0
    6.0676    2.6450    0.0000 H   0  0  0  0  0  0  0  0  0  0  0  0
    5.7358    0.5498    0.0000 H   0  0  0  0  0  0  0  0  0  0  0  0
    3.9724    2.9769    0.0000 H   0  0  0  0  0  0  0  0  0  0  0  0
    2.2497    2.8990    0.0000 H   0  0  0  0  0  0  0  0  0  0  0  0
    3.4189    1.7895    0.0000 H   0  0  0  0  0  0  0  0  0  0  0  0
    0.4638    3.7807    0.0000 H   0  0  0  0  0  0  0  0  0  0  0  0
    1.8470    3.3313    0.0000 H   0  0  0  0  0  0  0  0  0  0  0  0
   -0.4638    3.7807    0.0000 H   0  0  0  0  0  0  0  0  0  0  0  0
   -0.9405    4.2869    0.0000 H   0  0  0  0  0  0  0  0  0  0  0  0
   -2.8452    1.9764    0.0000 H   0  0  0  0  0  0  0  0  0  0  0  0
   -5.4086    3.0071    0.0000 H   0  0  0  0  0  0  0  0  0  0  0  0
   -2.6280    2.0226    0.0000 H   0  0  0  0  0  0  0  0  0  0  0  0
   -6.0578    2.0596    0.0000 H   0  0  0  0  0  0  0  0  0  0  0  0
   -3.4791    0.5708    0.0000 H   0  0  0  0  0  0  0  0  0  0  0  0
   -6.1771   -1.1245    0.0000 H   0  0  0  0  0  0  0  0  0  0  0  0
   -6.7261    0.9245    0.0000 H   0  0  0  0  0  0  0  0  0  0  0  0
   -4.4832   -0.9913    0.0000 H   0  0  0  0  0  0  0  0  0  0  0  0
   -5.0109    3.2551    0.0000 H   0  0  0  0  0  0  0  0  0  0  0  0
   -6.0465    4.6293    0.0000 H   0  0  0  0  0  0  0  0  0  0  0  0
   -1.7098    7.3671    0.0000 H   0  0  0  0  0  0  0  0  0  0  0  0
   -0.6736    5.2126    0.0000 H   0  0  0  0  0  0  0  0  0  0  0  0
   -1.2057    8.1256    0.0000 H   0  0  0  0  0  0  0  0  0  0  0  0
   -4.3279   10.9302    0.0000 H   0  0  0  0  0  0  0  0  0  0  0  0
   -2.2497   10.5046    0.0000 H   0  0  0  0  0  0  0  0  0  0  0  0
   -4.9399   10.3403    0.0000 H   0  0  0  0  0  0  0  0  0  0  0  0
   -5.9612   10.4589    0.0000 H   0  0  0  0  0  0  0  0  0  0  0  0
   -7.4316    9.9070    0.0000 H   0  0  0  0  0  0  0  0  0  0  0  0
   -8.2567    9.0440    0.0000 H   0  0  0  0  0  0  0  0  0  0  0  0
   -8.6883    7.3752    0.0000 H   0  0  0  0  0  0  0  0  0  0  0  0
   -5.4722    4.1816    0.0000 H   0  0  0  0  0  0  0  0  0  0  0  0
   -7.9157    5.5988    0.0000 H   0  0  0  0  0  0  0  0  0  0  0  0
   -6.0304    3.2941    0.0000 H   0  0  0  0  0  0  0  0  0  0  0  0
   -8.9047    2.3939    0.0000 H   0  0  0  0  0  0  0  0  0  0  0  0
   -8.9523    4.5147    0.0000 H   0  0  0  0  0  0  0  0  0  0  0  0
   -6.9184    2.3170    0.0000 H   0  0  0  0  0  0  0  0  0  0  0  0
   -3.4189    1.0636    0.0000 H   0  0  0  0  0  0  0  0  0  0  0  0
   -2.5975    2.7860    0.0000 H   0  0  0  0  0  0  0  0  0  0  0  0
   -4.9691    1.0790    0.0000 H   0  0  0  0  0  0  0  0  0  0  0  0
   -4.5131   -1.3808    0.0000 H   0  0  0  0  0  0  0  0  0  0  0  0
   -2.5975   -2.7860    0.0000 H   0  0  0  0  0  0  0  0  0  0  0  0
   -3.4635   -1.4266    0.0000 H   0  0  0  0  0  0  0  0  0  0  0  0
   -0.8286   -3.8062    0.0000 H   0  0  0  0  0  0  0  0  0  0  0  0
   -1.9635   -3.1899    0.0000 H   0  0  0  0  0  0  0  0  0  0  0  0
   -0.5080   -3.1252    0.0000 H   0  0  0  0  0  0  0  0  0  0  0  0
   -1.2409   -3.0926    0.0000 H   0  0  0  0  0  0  0  0  0  0  0  0
   -1.3273   -3.9904    0.0000 H   0  0  0  0  0  0  0  0  0  0  0  0
  1  2  2  3
  2  3  1  0
  3  4  1  0
  4  5  1  0
  5  6  1  0
  6  7  1  0
  7  8  1  0
  8  9  1  0
  9 10  1  0
 10 11  1  0
 11 12  1  0
 12 13  1  0
 13 14  1  0
 14 15  1  0
 13 16  1  0
 16 17  1  0
 17 18  1  0
 18 19  1  0
 20 19  1  6
 20 21  1  0
 21 22  1  0
 22 23  1  0
 20 24  1  0
 25 24  1  6
 25 26  1  0
 26 27  1  0
 27 28  1  0
 28 29  1  0
 29 30  1  0
 30 31  1  0
 31 32  1  0
 32 33  1  0
 33 34  1  0
 34 35  1  0
 35 36  1  0
 30 37  1  0
 18 38  1  0
 38 39  1  0
 39 40  2  3
 39 41  1  0
 41 42  1  0
 42 43  1  0
 43 44  1  0
 44  3  1  0
 43 12  1  0
 27 20  1  0
 37 28  1  0
 34 25  1  0
 37 25  1  1
 37 26  1  0
  1 45  1  0
  1 46  1  0
  2 47  1  0
  3 48  1  6
  4 49  1  0
  4 50  1  0
  5 51  1  0
  5 52  1  0
  6 53  1  0
  6 54  1  0
  7 55  1  0
  7 56  1  0
  8 57  1  0
  8 58  1  0
  9 59  1  0
  9 60  1  0
 10 61  1  0
 10 62  1  0
 11 63  1  0
 11 64  1  0
 12 65  1  6
 13 66  1  6
 14 67  1  0
 14 68  1  0
 15 69  1  0
 15 70  1  0
 15 71  1  0
 16 72  1  0
 16 73  1  0
 17 74  1  0
 17 75  1  0
 18 76  1  6
 19 77  1  0
 19 78  1  0
 21 79  1  0
 21 80  1  0
 22 81  1  0
 22 82  1  0
 23 83  1  0
 23 84  1  0
 23 85  1  0
 24 86  1  0
 24 87  1  0
 26 88  1  1
 27 89  1  1
 28 90  1  1
 29 91  1  0
 29 92  1  0
 30 93  1  1
 31 94  1  0
 31 95  1  0
 32 96  1  0
 32 97  1  0
 34 98  1  6
 35 99  1  0
 35100  1  0
 36101  1  0
 36102  1  0
 36103  1  0
 38104  1  0
 38105  1  0
 40106  1  0
 40107  1  0
 41108  1  0
 41109  1  0
 42110  1  0
 42111  1  0
 43112  1  6
 44113  1  0
 44114  1  0
M  END
$$$$
