
     RDKit          2D

 96108  0  0  0  0  0  0  0  0999 V2000
   -8.1437    2.3849    0.0000 C   0  0  0  0  0  0  0  0  0  0  0  0
   -6.9780    3.3288    0.0000 C   0  0  0  0  0  0  0  0  0  0  0  0
   -5.5776    2.7913    0.0000 C   0  0  0  0  0  0  0  0  0  0  0  0
   -4.1772    2.2537    0.0000 C   0  0  0  0  0  0  0  0  0  0  0  0
   -2.7768    1.7162    0.0000 C   0  0  0  0  0  0  0  0  0  0  0  0
   -2.3886    3.1651    0.0000 O   0  0  0  0  0  0  0  0  0  0  0  0
   -3.4493    4.2257    0.0000 C   0  0  0  0  0  0  0  0  0  0  0  0
   -3.4578    0.3797    0.0000 C   0  0  0  0  0  0  0  0  0  0  0  0
   -2.3972   -0.6810    0.0000 C   0  0  0  0  0  0  0  0  0  0  0  0
   -2.1625   -2.1625    0.0000 C   0  0  0  0  0  0  0  0  0  0  0  0
   -0.6810   -2.3972    0.0000 C   0  0  0  0  0  0  0  0  0  0  0  0
   -0.0000   -1.0607    0.0000 C   0  0  0  0  0  0  0  0  0  0  0  0
    1.0607    0.0000    0.0000 O   0  0  0  0  0  0  0  0  0  0  0  0
    0.0000    1.0607    0.0000 Mg  0  0  0  0  0  2  0  0  0  0  0  0
   -1.0607    0.0000    0.0000 C   0  0  0  0  0  0  0  0  0  0  0  0
   -1.2953    1.4815    0.0000 C   0  0  0  0  0  0  0  0  0  0  0  0
    0.8334   -2.3195    0.0000 O   0  0  0  0  0  0  0  0  0  0  0  0
    0.0164   -3.5775    0.0000 C   0  0  0  0  0  0  0  0  0  0  0  0
    1.4653   -3.9658    0.0000 C   0  0  0  0  0  0  0  0  0  0  0  0
    2.9559   -4.1337    0.0000 C   0  0  0  0  0  0  0  0  0  0  0  0
    2.7879   -2.6431    0.0000 C   0  0  0  0  0  0  0  0  0  0  0  0
    3.7539   -5.4038    0.0000 C   0  0  0  0  0  0  0  0  0  0  0  0
    5.2445   -5.2358    0.0000 C   0  0  0  0  0  0  0  0  0  0  0  0
    3.7539   -8.2354    0.0000 C   0  0  0  0  0  0  0  0  0  0  0  0
    2.3381   -8.7309    0.0000 C   0  0  0  0  0  0  0  0  0  0  0  0
    1.8427   -7.3150    0.0000 C   0  0  0  0  0  0  0  0  0  0  0  0
    3.2585   -6.8196    0.0000 C   0  0  0  0  0  0  0  0  0  0  0  0
    0.5726   -6.5170    0.0000 C   0  0  0  0  0  0  0  0  0  0  0  0
   -0.3158   -7.2437    0.0000 C   0  0  0  0  0  0  0  0  0  0  0  0
    0.8499   -8.1877    0.0000 C   0  0  0  0  0  0  0  0  0  0  0  0
    2.0156   -9.1317    0.0000 C   0  0  0  0  0  0  0  0  0  0  0  0
    3.1813  -10.0757    0.0000 C   0  0  0  0  0  0  0  0  0  0  0  0
    3.9539  -11.3614    0.0000 C   0  0  0  0  0  0  0  0  0  0  0  0
    2.4541  -11.3876    0.0000 C   0  0  0  0  0  0  0  0  0  0  0  0
   -1.7973   -7.0091    0.0000 C   0  0  0  0  0  0  0  0  0  0  0  0
   -2.9631   -6.0651    0.0000 C   0  0  0  0  0  0  0  0  0  0  0  0
   -4.1288   -5.1211    0.0000 C   0  0  0  0  0  0  0  0  0  0  0  0
   -2.0191   -4.8994    0.0000 C   0  0  0  0  0  0  0  0  0  0  0  0
   -1.4815   -3.4990    0.0000 C   0  0  0  0  0  0  0  0  0  0  0  0
   -2.9795   -3.5775    0.0000 C   0  0  0  0  0  0  0  0  0  0  0  0
   -0.8534   -5.8434    0.0000 C   0  0  0  0  0  0  0  0  0  0  0  0
    0.4046   -5.0264    0.0000 C   0  0  0  0  0  0  0  0  0  0  0  0
   -7.2126    4.8104    0.0000 O   0  0  0  0  0  0  0  0  0  0  0  0
   -8.6130    5.3479    0.0000 C   0  0  0  0  0  0  0  0  0  0  0  0
   -9.5440    2.9224    0.0000 H   0  0  0  0  0  0  0  0  0  0  0  0
   -7.9090    0.9033    0.0000 H   0  0  0  0  0  0  0  0  0  0  0  0
   -6.1151    1.3909    0.0000 H   0  0  0  0  0  0  0  0  0  0  0  0
   -5.0400    4.1917    0.0000 H   0  0  0  0  0  0  0  0  0  0  0  0
   -4.8815    0.9293    0.0000 H   0  0  0  0  0  0  0  0  0  0  0  0
   -3.9945    3.7426    0.0000 H   0  0  0  0  0  0  0  0  0  0  0  0
   -4.5099    5.2864    0.0000 H   0  0  0  0  0  0  0  0  0  0  0  0
   -2.3886    5.2864    0.0000 H   0  0  0  0  0  0  0  0  0  0  0  0
   -4.5099    3.1651    0.0000 H   0  0  0  0  0  0  0  0  0  0  0  0
   -4.5369   -0.6623    0.0000 H   0  0  0  0  0  0  0  0  0  0  0  0
   -4.8060    1.0372    0.0000 H   0  0  0  0  0  0  0  0  0  0  0  0
   -3.6407   -1.5198    0.0000 H   0  0  0  0  0  0  0  0  0  0  0  0
   -3.4483   -2.9350    0.0000 H   0  0  0  0  0  0  0  0  0  0  0  0
   -0.7071   -3.8969    0.0000 H   0  0  0  0  0  0  0  0  0  0  0  0
    0.6434   -3.1014    0.0000 H   0  0  0  0  0  0  0  0  0  0  0  0
   -1.2168    2.9795    0.0000 H   0  0  0  0  0  0  0  0  0  0  0  0
    0.1391    1.9202    0.0000 H   0  0  0  0  0  0  0  0  0  0  0  0
    1.5624   -2.4689    0.0000 H   0  0  0  0  0  0  0  0  0  0  0  0
    4.3007   -3.4694    0.0000 H   0  0  0  0  0  0  0  0  0  0  0  0
    2.6200   -1.1526    0.0000 H   0  0  0  0  0  0  0  0  0  0  0  0
    4.2785   -2.4752    0.0000 H   0  0  0  0  0  0  0  0  0  0  0  0
    1.3930   -2.0915    0.0000 H   0  0  0  0  0  0  0  0  0  0  0  0
    6.7351   -5.0679    0.0000 H   0  0  0  0  0  0  0  0  0  0  0  0
    5.5929   -6.6948    0.0000 H   0  0  0  0  0  0  0  0  0  0  0  0
    5.2595   -3.7359    0.0000 H   0  0  0  0  0  0  0  0  0  0  0  0
    5.1746   -8.7167    0.0000 H   0  0  0  0  0  0  0  0  0  0  0  0
    0.9223   -9.2263    0.0000 H   0  0  0  0  0  0  0  0  0  0  0  0
    3.1614   -9.9847    0.0000 H   0  0  0  0  0  0  0  0  0  0  0  0
    0.9311   -8.5063    0.0000 H   0  0  0  0  0  0  0  0  0  0  0  0
    4.7473   -7.0025    0.0000 H   0  0  0  0  0  0  0  0  0  0  0  0
   -0.4666   -7.5986    0.0000 H   0  0  0  0  0  0  0  0  0  0  0  0
   -0.0941   -9.3534    0.0000 H   0  0  0  0  0  0  0  0  0  0  0  0
    2.0479   -7.2851    0.0000 H   0  0  0  0  0  0  0  0  0  0  0  0
    0.9366  -10.1737    0.0000 H   0  0  0  0  0  0  0  0  0  0  0  0
    2.9596   -7.9660    0.0000 H   0  0  0  0  0  0  0  0  0  0  0  0
    4.4249   -9.2369    0.0000 H   0  0  0  0  0  0  0  0  0  0  0  0
    5.3543  -10.8239    0.0000 H   0  0  0  0  0  0  0  0  0  0  0  0
    4.2401  -12.8339    0.0000 H   0  0  0  0  0  0  0  0  0  0  0  0
    2.2195  -12.8692    0.0000 H   0  0  0  0  0  0  0  0  0  0  0  0
    0.9869  -11.0758    0.0000 H   0  0  0  0  0  0  0  0  0  0  0  0
   -2.4075   -8.3794    0.0000 H   0  0  0  0  0  0  0  0  0  0  0  0
   -3.9070   -7.2308    0.0000 H   0  0  0  0  0  0  0  0  0  0  0  0
   -5.2945   -4.1772    0.0000 H   0  0  0  0  0  0  0  0  0  0  0  0
   -5.2078   -6.1631    0.0000 H   0  0  0  0  0  0  0  0  0  0  0  0
   -4.9236   -6.3932    0.0000 H   0  0  0  0  0  0  0  0  0  0  0  0
   -3.4610   -4.4860    0.0000 H   0  0  0  0  0  0  0  0  0  0  0  0
   -4.4774   -3.6560    0.0000 H   0  0  0  0  0  0  0  0  0  0  0  0
   -3.0580   -2.0796    0.0000 H   0  0  0  0  0  0  0  0  0  0  0  0
   -2.9010   -5.0755    0.0000 H   0  0  0  0  0  0  0  0  0  0  0  0
  -10.0133    5.8855    0.0000 H   0  0  0  0  0  0  0  0  0  0  0  0
   -8.0754    6.7483    0.0000 H   0  0  0  0  0  0  0  0  0  0  0  0
   -9.1505    3.9476    0.0000 H   0  0  0  0  0  0  0  0  0  0  0  0
  1  2  2  3
  2  3  1  0
  3  4  1  0
  4  5  1  0
  5  6  1  0
  6  7  1  0
  5  8  1  0
  8  9  1  0
  9 10  1  0
 10 11  1  0
 11 12  1  0
 12 13  1  0
 13 14  1  0
 14 15  1  0
 15 16  1  0
 12 17  1  0
 17 18  1  0
 18 19  1  0
 19 20  1  0
 20 21  1  0
 20 22  1  0
 22 23  1  0
 22 24  1  0
 24 25  1  0
 25 26  1  0
 26 27  1  0
 26 28  1  0
 28 29  1  0
 29 30  1  0
 30 31  1  0
 31 32  1  0
 32 33  1  0
 33 34  1  0
 29 35  1  0
 35 36  1  0
 36 37  1  0
 36 38  1  0
 38 39  1  0
 39 40  1  0
 38 41  1  0
 41 42  1  0
  2 43  1  0
 43 44  1  0
 16  5  1  0
 39 18  1  0
 15  9  1  0
 42 18  1  0
 39 10  1  0
 15 12  1  0
 42 19  1  0
 27 22  1  0
 42 28  1  0
 27 24  1  0
 41 29  1  0
 34 32  1  0
 41 35  1  0
  1 45  1  0
  1 46  1  0
  3 47  1  0
  3 48  1  0
  4 49  1  0
  4 50  1  0
  7 51  1  0
  7 52  1  0
  7 53  1  0
  8 54  1  0
  8 55  1  0
  9 56  1  0
 10 57  1  0
 11 58  1  0
 11 59  1  0
 16 60  1  0
 16 61  1  0
 19 62  1  0
 20 63  1  0
 21 64  1  0
 21 65  1  0
 21 66  1  0
 23 67  1  0
 23 68  1  0
 23 69  1  0
 24 70  1  0
 25 71  1  0
 25 72  1  0
 26 73  1  0
 27 74  1  0
 28 75  1  0
 30 76  1  0
 30 77  1  0
 31 78  1  0
 31 79  1  0
 32 80  1  0
 33 81  1  0
 33 82  1  0
 34 83  1  0
 34 84  1  0
 35 85  1  0
 36 86  1  0
 37 87  1  0
 37 88  1  0
 37 89  1  0
 38 90  1  0
 40 91  1  0
 40 92  1  0
 40 93  1  0
 44 94  1  0
 44 95  1  0
 44 96  1  0
M  END
$$$$
