
     RDKit          2D

 33 39  0  0  0  0  0  0  0  0999 V2000
   -3.1586   -1.9635    0.0000 O   0  0  0  0  0  0  0  0  0  0  0  0
   -1.8596   -1.2135    0.0000 C   0  0  0  0  0  0  0  0  0  0  0  0
   -2.7413    0.0000    0.0000 N   0  0  0  0  0  0  0  0  0  0  0  0
   -1.8596    1.2135    0.0000 C   0  0  0  0  0  0  0  0  0  0  0  0
   -0.7449    2.2172    0.0000 C   0  0  0  0  0  0  0  0  0  0  0  0
    0.6459    2.7791    0.0000 C   0  0  0  0  0  0  0  0  0  0  0  0
    1.7606    3.7828    0.0000 C   0  0  0  0  0  0  0  0  0  0  0  0
    0.3340    4.2464    0.0000 C   0  0  0  0  0  0  0  0  0  0  0  0
    0.5428    5.7318    0.0000 C   0  0  0  0  0  0  0  0  0  0  0  0
   -0.8838    6.1953    0.0000 C   0  0  0  0  0  0  0  0  0  0  0  0
   -1.1957    7.6625    0.0000 C   0  0  0  0  0  0  0  0  0  0  0  0
   -0.0809    8.6662    0.0000 C   0  0  0  0  0  0  0  0  0  0  0  0
    0.2309    7.1990    0.0000 C   0  0  0  0  0  0  0  0  0  0  0  0
   -0.4330    0.7500    0.0000 C   0  0  0  0  0  0  0  0  0  0  0  0
    0.8660   -0.0000    0.0000 C   0  0  0  0  0  0  0  0  0  0  0  0
   -0.4330   -0.7500    0.0000 C   0  0  0  0  0  0  0  0  0  0  0  0
   -3.1586   -3.4635    0.0000 H   0  0  0  0  0  0  0  0  0  0  0  0
   -1.2495   -2.5838    0.0000 H   0  0  0  0  0  0  0  0  0  0  0  0
   -4.2413    0.0000    0.0000 H   0  0  0  0  0  0  0  0  0  0  0  0
   -2.9743    2.2172    0.0000 H   0  0  0  0  0  0  0  0  0  0  0  0
   -1.6889    3.3829    0.0000 H   0  0  0  0  0  0  0  0  0  0  0  0
    1.4105    1.8349    0.0000 H   0  0  0  0  0  0  0  0  0  0  0  0
    2.9426    2.8593    0.0000 H   0  0  0  0  0  0  0  0  0  0  0  0
    2.6210    5.0115    0.0000 H   0  0  0  0  0  0  0  0  0  0  0  0
   -1.1603    4.3771    0.0000 H   0  0  0  0  0  0  0  0  0  0  0  0
    2.0243    5.9664    0.0000 H   0  0  0  0  0  0  0  0  0  0  0  0
   -1.9985    5.1916    0.0000 H   0  0  0  0  0  0  0  0  0  0  0  0
   -2.6222    8.1260    0.0000 H   0  0  0  0  0  0  0  0  0  0  0  0
   -0.8758    9.9383    0.0000 H   0  0  0  0  0  0  0  0  0  0  0  0
    1.3098    9.2281    0.0000 H   0  0  0  0  0  0  0  0  0  0  0  0
    1.7546    0.8286    0.0000 H   0  0  0  0  0  0  0  0  0  0  0  0
    1.8302   -1.1491    0.0000 H   0  0  0  0  0  0  0  0  0  0  0  0
    0.1771   -2.1203    0.0000 H   0  0  0  0  0  0  0  0  0  0  0  0
  1  2  1  0
  2  3  1  0
  3  4  1  0
  4  5  1  0
  5  6  1  0
  6  7  1  0
  7  8  1  0
  8  9  1  0
  9 10  1  0
 10 11  1  0
 11 12  1  0
 12 13  1  0
  5 14  1  0
 14 15  1  0
 15 16  1  0
 16  2  1  0
 14  4  1  0
  8  6  1  0
 13  9  1  0
 16 14  1  0
 13 10  1  0
 13 11  1  0
  1 17  1  0
  2 18  1  0
  3 19  1  0
  4 20  1  0
  5 21  1  0
  6 22  1  0
  7 23  1  0
  7 24  1  0
  8 25  1  0
  9 26  1  0
 10 27  1  0
 11 28  1  0
 12 29  1  0
 12 30  1  0
 15 31  1  0
 15 32  1  0
 16 33  1  0
M  END
$$$$
