
     RDKit          2D

 66 75  0  0  0  0  0  0  0  0999 V2000
    3.7621   -5.3102    0.0000 C   0  0  0  0  0  0  0  0  0  0  0  0
    4.1720   -6.7531    0.0000 C   0  0  0  0  0  0  0  0  0  0  0  0
    2.7231   -7.1414    0.0000 C   0  0  0  0  0  0  0  0  0  0  0  0
    2.0891   -5.7819    0.0000 C   0  0  0  0  0  0  0  0  0  0  0  0
    1.4552   -4.4224    0.0000 C   0  0  0  0  0  0  0  0  0  0  0  0
    0.3946   -3.3618    0.0000 C   0  0  0  0  0  0  0  0  0  0  0  0
    0.0063   -4.8107    0.0000 C   0  0  0  0  0  0  0  0  0  0  0  0
    0.0063   -6.3107    0.0000 C   0  0  0  0  0  0  0  0  0  0  0  0
   -1.4937   -6.3107    0.0000 O   0  0  0  0  0  0  0  0  0  0  0  0
   -1.4937   -4.8107    0.0000 C   0  0  0  0  0  0  0  0  0  0  0  0
   -1.4937   -3.3107    0.0000 C   0  0  0  0  0  0  0  0  0  0  0  0
   -2.9937   -3.3107    0.0000 B   0  0  0  0  0  0  0  0  0  0  0  0
   -2.9937   -1.8107    0.0000 C   0  0  0  0  0  0  0  0  0  0  0  0
   -4.0543   -0.7500    0.0000 S   0  0  0  0  0  0  0  0  0  0  0  0
   -4.0543    0.7500    0.0000 N   0  0  0  0  0  0  0  0  0  0  0  0
   -2.9937    1.8107    0.0000 C   0  0  0  0  0  0  0  0  0  0  0  0
   -1.4937    1.8107    0.0000 C   0  0  0  0  0  0  0  0  0  0  0  0
   -0.4330    0.7500    0.0000 C   0  0  0  0  0  0  0  0  0  0  0  0
    0.8660    0.0000    0.0000 C   0  0  0  0  0  0  0  0  0  0  0  0
   -0.4330   -0.7500    0.0000 C   0  0  0  0  0  0  0  0  0  0  0  0
   -1.4937   -1.8107    0.0000 C   0  0  0  0  0  0  0  0  0  0  0  0
    3.6082   -8.8570    0.0000 C   0  0  0  0  0  0  0  0  0  0  0  0
    4.0931  -10.2765    0.0000 C   0  0  0  0  0  0  0  0  0  0  0  0
    5.5929  -10.2540    0.0000 C   0  0  0  0  0  0  0  0  0  0  0  0
    6.0350   -8.8206    0.0000 C   0  0  0  0  0  0  0  0  0  0  0  0
    5.7665   -7.8991    0.0000 O   0  0  0  0  0  0  0  0  0  0  0  0
    4.8084   -7.9572    0.0000 C   0  0  0  0  0  0  0  0  0  0  0  0
    5.6718   -6.7306    0.0000 C   0  0  0  0  0  0  0  0  0  0  0  0
    6.8984   -7.5940    0.0000 C   0  0  0  0  0  0  0  0  0  0  0  0
    8.1250   -8.4574    0.0000 C   0  0  0  0  0  0  0  0  0  0  0  0
    9.3516   -9.3208    0.0000 P   0  0  0  0  0  0  0  0  0  0  0  0
    3.5311   -3.8281    0.0000 H   0  0  0  0  0  0  0  0  0  0  0  0
    5.1442   -4.7275    0.0000 H   0  0  0  0  0  0  0  0  0  0  0  0
    2.9653   -5.3360    0.0000 H   0  0  0  0  0  0  0  0  0  0  0  0
    1.4943   -8.0017    0.0000 H   0  0  0  0  0  0  0  0  0  0  0  0
    1.0472   -6.8610    0.0000 H   0  0  0  0  0  0  0  0  0  0  0  0
    2.7775   -5.2244    0.0000 H   0  0  0  0  0  0  0  0  0  0  0  0
    2.5699   -3.4187    0.0000 H   0  0  0  0  0  0  0  0  0  0  0  0
    1.3983   -2.2471    0.0000 H   0  0  0  0  0  0  0  0  0  0  0  0
   -0.7711   -2.4177    0.0000 H   0  0  0  0  0  0  0  0  0  0  0  0
    0.0063   -7.8107    0.0000 H   0  0  0  0  0  0  0  0  0  0  0  0
    1.4067   -6.8483    0.0000 H   0  0  0  0  0  0  0  0  0  0  0  0
   -2.9937   -4.8107    0.0000 H   0  0  0  0  0  0  0  0  0  0  0  0
   -0.0382   -2.9477    0.0000 H   0  0  0  0  0  0  0  0  0  0  0  0
   -4.0543   -4.3713    0.0000 H   0  0  0  0  0  0  0  0  0  0  0  0
   -4.3795   -2.3847    0.0000 H   0  0  0  0  0  0  0  0  0  0  0  0
   -5.4402    1.3240    0.0000 H   0  0  0  0  0  0  0  0  0  0  0  0
   -2.7850    3.2961    0.0000 H   0  0  0  0  0  0  0  0  0  0  0  0
   -4.2927    2.5607    0.0000 H   0  0  0  0  0  0  0  0  0  0  0  0
   -0.1946    2.5607    0.0000 H   0  0  0  0  0  0  0  0  0  0  0  0
   -1.7024    3.2961    0.0000 H   0  0  0  0  0  0  0  0  0  0  0  0
    0.4801    1.9400    0.0000 H   0  0  0  0  0  0  0  0  0  0  0  0
    1.8302    1.1491    0.0000 H   0  0  0  0  0  0  0  0  0  0  0  0
    1.8302   -1.1491    0.0000 H   0  0  0  0  0  0  0  0  0  0  0  0
    0.7409   -1.6837    0.0000 H   0  0  0  0  0  0  0  0  0  0  0  0
   -0.1882   -2.5493    0.0000 H   0  0  0  0  0  0  0  0  0  0  0  0
    2.6307  -10.6103    0.0000 H   0  0  0  0  0  0  0  0  0  0  0  0
    4.2722  -11.7658    0.0000 H   0  0  0  0  0  0  0  0  0  0  0  0
    5.4585  -11.7480    0.0000 H   0  0  0  0  0  0  0  0  0  0  0  0
    7.0183  -10.7211    0.0000 H   0  0  0  0  0  0  0  0  0  0  0  0
    5.5970   -5.2325    0.0000 H   0  0  0  0  0  0  0  0  0  0  0  0
    7.7618   -6.3674    0.0000 H   0  0  0  0  0  0  0  0  0  0  0  0
    8.9884   -7.2308    0.0000 H   0  0  0  0  0  0  0  0  0  0  0  0
    7.4176   -9.7801    0.0000 H   0  0  0  0  0  0  0  0  0  0  0  0
    9.2172  -10.8148    0.0000 H   0  0  0  0  0  0  0  0  0  0  0  0
   10.7126   -8.6902    0.0000 H   0  0  0  0  0  0  0  0  0  0  0  0
  2  1  1  6
  2  3  1  0
  3  4  1  0
  4  5  1  0
  5  6  1  0
  7  6  1  1
  7  8  1  0
  8  9  1  0
  9 10  1  0
 10 11  1  0
 11 12  1  0
 12 13  1  0
 13 14  1  0
 14 15  1  0
 15 16  1  0
 16 17  1  0
 17 18  1  0
 18 19  1  0
 19 20  1  0
 20 21  1  0
  3 22  1  0
 22 23  1  6
 23 24  1  0
 24 25  1  0
 25 26  1  6
 27 26  1  1
 27 28  1  0
 28 29  1  0
 29 30  1  0
 30 31  1  0
 22  2  1  0
 27 25  1  0
 28  2  1  0
  7  5  1  0
 21 11  1  0
 27 22  1  0
 10  7  1  0
 21 13  1  0
 29 25  1  0
 20 18  1  0
  1 32  1  0
  1 33  1  0
  1 34  1  0
  3 35  1  1
  4 36  1  0
  4 37  1  0
  5 38  1  6
  6 39  1  0
  6 40  1  0
  8 41  1  0
  8 42  1  0
 10 43  1  6
 11 44  1  6
 12 45  1  0
 13 46  1  1
 15 47  1  0
 16 48  1  0
 16 49  1  0
 17 50  1  0
 17 51  1  0
 18 52  1  6
 19 53  1  0
 19 54  1  0
 20 55  1  6
 21 56  1  1
 23 57  1  0
 23 58  1  0
 24 59  1  0
 24 60  1  0
 28 61  1  6
 29 62  1  1
 30 63  1  0
 30 64  1  0
 31 65  1  0
 31 66  1  0
M  END
$$$$
