
     RDKit          2D

 78 81  0  0  0  0  0  0  0  0999 V2000
   -1.5682   -4.3515    0.0000 C   0  0  0  0  0  0  0  0  0  0  0  0
   -3.0682   -4.3515    0.0000 C   0  0  0  0  0  0  0  0  0  0  0  0
   -4.5682   -4.3515    0.0000 C   0  0  0  0  0  0  0  0  0  0  0  0
   -6.0682   -4.3515    0.0000 C   0  0  0  0  0  0  0  0  0  0  0  0
   -7.5682   -4.3515    0.0000 C   0  0  0  0  0  0  0  0  0  0  0  0
   -9.0682   -4.3515    0.0000 C   0  0  0  0  0  0  0  0  0  0  0  0
  -10.4196   -3.7006    0.0000 C   0  0  0  0  0  0  0  0  0  0  0  0
  -11.7711   -4.3515    0.0000 C   0  0  0  0  0  0  0  0  0  0  0  0
  -12.1048   -2.8891    0.0000 C   0  0  0  0  0  0  0  0  0  0  0  0
  -12.1273   -1.3892    0.0000 C   0  0  0  0  0  0  0  0  0  0  0  0
  -13.5606   -0.9471    0.0000 C   0  0  0  0  0  0  0  0  0  0  0  0
  -14.4241   -2.1737    0.0000 C   0  0  0  0  0  0  0  0  0  0  0  0
  -15.5537   -1.1868    0.0000 C   0  0  0  0  0  0  0  0  0  0  0  0
  -13.5243   -3.3739    0.0000 C   0  0  0  0  0  0  0  0  0  0  0  0
  -12.1048   -5.8138    0.0000 C   0  0  0  0  0  0  0  0  0  0  0  0
  -11.1696   -6.9866    0.0000 C   0  0  0  0  0  0  0  0  0  0  0  0
   -9.6696   -6.9866    0.0000 C   0  0  0  0  0  0  0  0  0  0  0  0
   -8.7344   -5.8138    0.0000 C   0  0  0  0  0  0  0  0  0  0  0  0
   -7.7991   -6.9866    0.0000 C   0  0  0  0  0  0  0  0  0  0  0  0
   -3.0682   -2.8515    0.0000 C   0  0  0  0  0  0  0  0  0  0  0  0
   -3.0682   -1.3515    0.0000 C   0  0  0  0  0  0  0  0  0  0  0  0
   -3.7190    0.0000    0.0000 C   0  0  0  0  0  0  0  0  0  0  0  0
   -3.0682    1.3515    0.0000 C   0  0  0  0  0  0  0  0  0  0  0  0
   -1.6058    1.6852    0.0000 C   0  0  0  0  0  0  0  0  0  0  0  0
   -0.4330    0.7500    0.0000 C   0  0  0  0  0  0  0  0  0  0  0  0
    0.8660    0.0000    0.0000 C   0  0  0  0  0  0  0  0  0  0  0  0
   -0.4330   -0.7500    0.0000 C   0  0  0  0  0  0  0  0  0  0  0  0
   -1.6058   -1.6852    0.0000 C   0  0  0  0  0  0  0  0  0  0  0  0
   -0.0682   -4.3515    0.0000 H   0  0  0  0  0  0  0  0  0  0  0  0
   -1.5682   -5.8515    0.0000 H   0  0  0  0  0  0  0  0  0  0  0  0
   -1.5682   -2.8515    0.0000 H   0  0  0  0  0  0  0  0  0  0  0  0
   -3.0682   -5.8515    0.0000 H   0  0  0  0  0  0  0  0  0  0  0  0
   -4.5682   -5.8515    0.0000 H   0  0  0  0  0  0  0  0  0  0  0  0
   -4.7510   -2.8626    0.0000 H   0  0  0  0  0  0  0  0  0  0  0  0
   -5.8853   -5.8403    0.0000 H   0  0  0  0  0  0  0  0  0  0  0  0
   -6.0682   -2.8515    0.0000 H   0  0  0  0  0  0  0  0  0  0  0  0
   -7.5682   -2.8515    0.0000 H   0  0  0  0  0  0  0  0  0  0  0  0
   -7.3853   -5.8403    0.0000 H   0  0  0  0  0  0  0  0  0  0  0  0
   -8.5586   -2.9407    0.0000 H   0  0  0  0  0  0  0  0  0  0  0  0
   -9.6343   -2.4226    0.0000 H   0  0  0  0  0  0  0  0  0  0  0  0
  -10.8369   -3.0214    0.0000 H   0  0  0  0  0  0  0  0  0  0  0  0
  -13.2711   -4.3515    0.0000 H   0  0  0  0  0  0  0  0  0  0  0  0
  -11.3309   -2.6981    0.0000 H   0  0  0  0  0  0  0  0  0  0  0  0
  -10.6333   -1.5237    0.0000 H   0  0  0  0  0  0  0  0  0  0  0  0
  -11.8374    0.0825    0.0000 H   0  0  0  0  0  0  0  0  0  0  0  0
  -12.9711    0.4322    0.0000 H   0  0  0  0  0  0  0  0  0  0  0  0
  -14.7719   -0.0624    0.0000 H   0  0  0  0  0  0  0  0  0  0  0  0
  -15.5236   -3.1939    0.0000 H   0  0  0  0  0  0  0  0  0  0  0  0
  -16.6833   -0.1999    0.0000 H   0  0  0  0  0  0  0  0  0  0  0  0
  -16.5406   -2.3164    0.0000 H   0  0  0  0  0  0  0  0  0  0  0  0
  -14.7118    0.0547    0.0000 H   0  0  0  0  0  0  0  0  0  0  0  0
  -14.8120   -4.1432    0.0000 H   0  0  0  0  0  0  0  0  0  0  0  0
  -13.2419   -4.8470    0.0000 H   0  0  0  0  0  0  0  0  0  0  0  0
  -13.5736   -5.5094    0.0000 H   0  0  0  0  0  0  0  0  0  0  0  0
  -13.1761   -6.8638    0.0000 H   0  0  0  0  0  0  0  0  0  0  0  0
  -12.4316   -7.7973    0.0000 H   0  0  0  0  0  0  0  0  0  0  0  0
  -11.0166   -8.4788    0.0000 H   0  0  0  0  0  0  0  0  0  0  0  0
   -9.8226   -8.4788    0.0000 H   0  0  0  0  0  0  0  0  0  0  0  0
   -8.4076   -7.7973    0.0000 H   0  0  0  0  0  0  0  0  0  0  0  0
   -7.3137   -5.3326    0.0000 H   0  0  0  0  0  0  0  0  0  0  0  0
   -6.8639   -8.1593    0.0000 H   0  0  0  0  0  0  0  0  0  0  0  0
   -8.8491   -8.0578    0.0000 H   0  0  0  0  0  0  0  0  0  0  0  0
   -6.5211   -6.2013    0.0000 H   0  0  0  0  0  0  0  0  0  0  0  0
   -1.5682   -2.8515    0.0000 H   0  0  0  0  0  0  0  0  0  0  0  0
   -4.5570   -2.6686    0.0000 H   0  0  0  0  0  0  0  0  0  0  0  0
   -4.4790   -1.8610    0.0000 H   0  0  0  0  0  0  0  0  0  0  0  0
   -4.9970   -0.7853    0.0000 H   0  0  0  0  0  0  0  0  0  0  0  0
   -4.9970    0.7853    0.0000 H   0  0  0  0  0  0  0  0  0  0  0  0
   -4.4790    1.8610    0.0000 H   0  0  0  0  0  0  0  0  0  0  0  0
   -3.2510    2.8403    0.0000 H   0  0  0  0  0  0  0  0  0  0  0  0
   -2.0870    3.1059    0.0000 H   0  0  0  0  0  0  0  0  0  0  0  0
   -0.4330    2.6205    0.0000 H   0  0  0  0  0  0  0  0  0  0  0  0
    0.4120    1.9894    0.0000 H   0  0  0  0  0  0  0  0  0  0  0  0
    1.8302    1.1491    0.0000 H   0  0  0  0  0  0  0  0  0  0  0  0
    1.8302   -1.1491    0.0000 H   0  0  0  0  0  0  0  0  0  0  0  0
    0.4120   -1.9894    0.0000 H   0  0  0  0  0  0  0  0  0  0  0  0
   -0.4330   -2.6205    0.0000 H   0  0  0  0  0  0  0  0  0  0  0  0
   -2.2566   -3.0367    0.0000 H   0  0  0  0  0  0  0  0  0  0  0  0
  1  2  1  0
  2  3  1  0
  3  4  1  0
  4  5  1  0
  5  6  1  0
  6  7  1  0
  7  8  1  0
  8  9  1  0
  9 10  1  0
 10 11  1  0
 11 12  1  0
 12 13  1  0
 12 14  1  0
  8 15  1  0
 15 16  1  0
 16 17  1  0
 17 18  1  0
 18 19  1  0
  2 20  1  0
 20 21  1  0
 21 22  1  0
 22 23  1  0
 23 24  1  0
 24 25  1  0
 25 26  1  0
 26 27  1  0
 27 28  1  0
 18  6  1  0
 28 21  1  0
 14  9  1  0
 27 25  1  0
  1 29  1  0
  1 30  1  0
  1 31  1  0
  2 32  1  6
  3 33  1  0
  3 34  1  0
  4 35  1  0
  4 36  1  0
  5 37  1  0
  5 38  1  0
  6 39  1  1
  7 40  1  0
  7 41  1  0
  8 42  1  1
  9 43  1  6
 10 44  1  0
 10 45  1  0
 11 46  1  0
 11 47  1  0
 12 48  1  1
 13 49  1  0
 13 50  1  0
 13 51  1  0
 14 52  1  0
 14 53  1  0
 15 54  1  0
 15 55  1  0
 16 56  1  0
 16 57  1  0
 17 58  1  0
 17 59  1  0
 18 60  1  6
 19 61  1  0
 19 62  1  0
 19 63  1  0
 20 64  1  0
 20 65  1  0
 21 66  1  1
 22 67  1  0
 22 68  1  0
 23 69  1  0
 23 70  1  0
 24 71  1  0
 24 72  1  0
 25 73  1  6
 26 74  1  0
 26 75  1  0
 27 76  1  6
 28 77  1  0
 28 78  1  0
M  END
$$$$
