
     RDKit          2D

 64 68  0  0  0  0  0  0  0  0999 V2000
   -1.9257   -6.0392    0.0000 C   0  0  0  0  0  0  0  0  0  0  0  0
   -3.4243   -6.1046    0.0000 C   0  0  0  0  0  0  0  0  0  0  0  0
   -4.9229   -6.1701    0.0000 C   0  0  0  0  0  0  0  0  0  0  0  0
   -6.4214   -6.2355    0.0000 C   0  0  0  0  0  0  0  0  0  0  0  0
   -6.6172   -7.7226    0.0000 C   0  0  0  0  0  0  0  0  0  0  0  0
   -8.0031   -8.2967    0.0000 N   0  0  0  0  0  0  0  0  0  0  0  0
   -7.8520   -5.7844    0.0000 C   0  0  0  0  0  0  0  0  0  0  0  0
   -6.7461   -4.7710    0.0000 C   0  0  0  0  0  0  0  0  0  0  0  0
   -5.3603   -4.1970    0.0000 C   0  0  0  0  0  0  0  0  0  0  0  0
   -4.7863   -5.5828    0.0000 N   0  0  0  0  0  0  0  0  0  0  0  0
   -3.9745   -3.6230    0.0000 C   0  0  0  0  0  0  0  0  0  0  0  0
   -2.6820   -4.3843    0.0000 O   0  0  0  0  0  0  0  0  0  0  0  0
   -3.7787   -2.1358    0.0000 C   0  0  0  0  0  0  0  0  0  0  0  0
   -2.3929   -2.7098    0.0000 C   0  0  0  0  0  0  0  0  0  0  0  0
   -1.0070   -2.1358    0.0000 C   0  0  0  0  0  0  0  0  0  0  0  0
   -0.4330   -0.7500    0.0000 C   0  0  0  0  0  0  0  0  0  0  0  0
   -1.9330   -0.7500    0.0000 C   0  0  0  0  0  0  0  0  0  0  0  0
   -1.9330    0.7500    0.0000 C   0  0  0  0  0  0  0  0  0  0  0  0
   -3.7787    0.6358    0.0000 C   0  0  0  0  0  0  0  0  0  0  0  0
   -5.2658    0.8316    0.0000 C   0  0  0  0  0  0  0  0  0  0  0  0
   -6.7530    1.0274    0.0000 C   0  0  0  0  0  0  0  0  0  0  0  0
   -8.0835    1.7200    0.0000 C   0  0  0  0  0  0  0  0  0  0  0  0
   -6.8184    2.5260    0.0000 C   0  0  0  0  0  0  0  0  0  0  0  0
   -7.3925    3.9118    0.0000 C   0  0  0  0  0  0  0  0  0  0  0  0
   -4.3527   -0.7500    0.0000 N   0  0  0  0  0  0  0  0  0  0  0  0
   -0.4330    0.7500    0.0000 C   0  0  0  0  0  0  0  0  0  0  0  0
    0.8660    0.0000    0.0000 C   0  0  0  0  0  0  0  0  0  0  0  0
   -0.4272   -5.9738    0.0000 H   0  0  0  0  0  0  0  0  0  0  0  0
   -1.8603   -7.5378    0.0000 H   0  0  0  0  0  0  0  0  0  0  0  0
   -1.6266   -4.5693    0.0000 H   0  0  0  0  0  0  0  0  0  0  0  0
   -3.1252   -4.6348    0.0000 H   0  0  0  0  0  0  0  0  0  0  0  0
   -3.3589   -7.6032    0.0000 H   0  0  0  0  0  0  0  0  0  0  0  0
   -4.6237   -4.7002    0.0000 H   0  0  0  0  0  0  0  0  0  0  0  0
   -4.8574   -7.6686    0.0000 H   0  0  0  0  0  0  0  0  0  0  0  0
   -5.4272   -8.6358    0.0000 H   0  0  0  0  0  0  0  0  0  0  0  0
   -8.1988   -9.7838    0.0000 H   0  0  0  0  0  0  0  0  0  0  0  0
   -9.0421   -4.8713    0.0000 H   0  0  0  0  0  0  0  0  0  0  0  0
   -8.5446   -7.1149    0.0000 H   0  0  0  0  0  0  0  0  0  0  0  0
   -7.5521   -3.5059    0.0000 H   0  0  0  0  0  0  0  0  0  0  0  0
   -6.0990   -2.8915    0.0000 H   0  0  0  0  0  0  0  0  0  0  0  0
   -5.6994   -6.7729    0.0000 H   0  0  0  0  0  0  0  0  0  0  0  0
   -3.2959   -5.4129    0.0000 H   0  0  0  0  0  0  0  0  0  0  0  0
   -5.2786   -2.1489    0.0000 H   0  0  0  0  0  0  0  0  0  0  0  0
   -1.4797   -3.8999    0.0000 H   0  0  0  0  0  0  0  0  0  0  0  0
   -2.6403   -4.1893    0.0000 H   0  0  0  0  0  0  0  0  0  0  0  0
    0.4801   -2.3316    0.0000 H   0  0  0  0  0  0  0  0  0  0  0  0
   -0.6314   -3.5880    0.0000 H   0  0  0  0  0  0  0  0  0  0  0  0
   -3.4330   -0.7500    0.0000 H   0  0  0  0  0  0  0  0  0  0  0  0
   -2.2960   -2.2054    0.0000 H   0  0  0  0  0  0  0  0  0  0  0  0
   -2.9937    1.8107    0.0000 H   0  0  0  0  0  0  0  0  0  0  0  0
   -3.9745    2.1230    0.0000 H   0  0  0  0  0  0  0  0  0  0  0  0
   -4.8902    2.2838    0.0000 H   0  0  0  0  0  0  0  0  0  0  0  0
   -5.6415   -0.6206    0.0000 H   0  0  0  0  0  0  0  0  0  0  0  0
   -7.2041   -0.4032    0.0000 H   0  0  0  0  0  0  0  0  0  0  0  0
   -8.9967    0.5300    0.0000 H   0  0  0  0  0  0  0  0  0  0  0  0
   -9.2242    2.6942    0.0000 H   0  0  0  0  0  0  0  0  0  0  0  0
   -5.4045    3.0267    0.0000 H   0  0  0  0  0  0  0  0  0  0  0  0
   -7.9665    5.2976    0.0000 H   0  0  0  0  0  0  0  0  0  0  0  0
   -6.0066    4.4858    0.0000 H   0  0  0  0  0  0  0  0  0  0  0  0
   -8.8379    3.5110    0.0000 H   0  0  0  0  0  0  0  0  0  0  0  0
   -5.8415   -0.9328    0.0000 H   0  0  0  0  0  0  0  0  0  0  0  0
   -0.0448    2.1989    0.0000 H   0  0  0  0  0  0  0  0  0  0  0  0
    1.8302    1.1491    0.0000 H   0  0  0  0  0  0  0  0  0  0  0  0
    1.8302   -1.1491    0.0000 H   0  0  0  0  0  0  0  0  0  0  0  0
  1  2  1  0
  2  3  1  0
  3  4  1  0
  4  5  1  0
  5  6  2  3
  4  7  1  0
  7  8  1  0
  8  9  1  0
  9 10  1  0
  9 11  1  0
 11 12  2  0
 11 13  1  0
 13 14  1  0
 14 15  1  0
 15 16  1  0
 16 17  1  0
 17 18  1  0
 18 19  1  0
 19 20  1  0
 20 21  1  0
 21 22  1  0
 22 23  1  0
 23 24  1  0
 19 25  1  0
 18 26  1  0
 26 27  1  0
  8  4  1  0
 25 13  1  0
 26 16  1  0
 27 16  1  0
 23 21  1  0
  1 28  1  0
  1 29  1  0
  1 30  1  0
  2 31  1  0
  2 32  1  0
  3 33  1  0
  3 34  1  0
  5 35  1  0
  6 36  1  0
  7 37  1  0
  7 38  1  0
  8 39  1  0
  9 40  1  0
 10 41  1  0
 10 42  1  0
 13 43  1  0
 14 44  1  0
 14 45  1  0
 15 46  1  0
 15 47  1  0
 17 48  1  0
 17 49  1  0
 18 50  1  0
 19 51  1  0
 20 52  1  0
 20 53  1  0
 21 54  1  0
 22 55  1  0
 22 56  1  0
 23 57  1  0
 24 58  1  0
 24 59  1  0
 24 60  1  0
 25 61  1  0
 26 62  1  0
 27 63  1  0
 27 64  1  0
M  END
$$$$
