
     RDKit          2D

 46 47  0  0  0  0  0  0  0  0999 V2000
    7.9461    1.3477    0.0000 C   0  0  0  0  0  0  0  0  0  0  0  0
    6.5366    1.8607    0.0000 C   0  0  0  0  0  0  0  0  0  0  0  0
    5.1270    2.3737    0.0000 C   0  0  0  0  0  0  0  0  0  0  0  0
    4.3770    1.0747    0.0000 C   0  0  0  0  0  0  0  0  0  0  0  0
    5.3875    3.8509    0.0000 C   0  0  0  0  0  0  0  0  0  0  0  0
    5.1270    5.3281    0.0000 C   0  0  0  0  0  0  0  0  0  0  0  0
    4.8666    6.8054    0.0000 O   0  0  0  0  0  0  0  0  0  0  0  0
    3.9780    3.3379    0.0000 C   0  0  0  0  0  0  0  0  0  0  0  0
    2.8289    2.3737    0.0000 C   0  0  0  0  0  0  0  0  0  0  0  0
    1.6798    1.4095    0.0000 C   0  0  0  0  0  0  0  0  0  0  0  0
    2.1929    0.0000    0.0000 C   0  0  0  0  0  0  0  0  0  0  0  0
    1.6798   -1.4095    0.0000 C   0  0  0  0  0  0  0  0  0  0  0  0
    0.3808   -2.1595    0.0000 C   0  0  0  0  0  0  0  0  0  0  0  0
   -1.0964   -1.8991    0.0000 C   0  0  0  0  0  0  0  0  0  0  0  0
   -2.0606   -0.7500    0.0000 C   0  0  0  0  0  0  0  0  0  0  0  0
   -2.0606    0.7500    0.0000 C   0  0  0  0  0  0  0  0  0  0  0  0
   -1.0964    1.8991    0.0000 C   0  0  0  0  0  0  0  0  0  0  0  0
    0.3808    2.1595    0.0000 C   0  0  0  0  0  0  0  0  0  0  0  0
    9.3556    0.8346    0.0000 H   0  0  0  0  0  0  0  0  0  0  0  0
    7.4331   -0.0619    0.0000 H   0  0  0  0  0  0  0  0  0  0  0  0
    8.4591    2.7572    0.0000 H   0  0  0  0  0  0  0  0  0  0  0  0
    7.1495    3.0635    0.0000 H   0  0  0  0  0  0  0  0  0  0  0  0
    6.2633    0.6768    0.0000 H   0  0  0  0  0  0  0  0  0  0  0  0
    3.6270   -0.2244    0.0000 H   0  0  0  0  0  0  0  0  0  0  0  0
    3.6107    1.2944    0.0000 H   0  0  0  0  0  0  0  0  0  0  0  0
    5.3473    0.3435    0.0000 H   0  0  0  0  0  0  0  0  0  0  0  0
    6.7274    4.0155    0.0000 H   0  0  0  0  0  0  0  0  0  0  0  0
    6.6042    5.5886    0.0000 H   0  0  0  0  0  0  0  0  0  0  0  0
    3.7789    5.2575    0.0000 H   0  0  0  0  0  0  0  0  0  0  0  0
    6.0156    7.7695    0.0000 H   0  0  0  0  0  0  0  0  0  0  0  0
    3.1655    4.4160    0.0000 H   0  0  0  0  0  0  0  0  0  0  0  0
    3.1783    1.6572    0.0000 H   0  0  0  0  0  0  0  0  0  0  0  0
    2.0120    3.6317    0.0000 H   0  0  0  0  0  0  0  0  0  0  0  0
    2.8289   -2.3737    0.0000 H   0  0  0  0  0  0  0  0  0  0  0  0
    1.4718   -3.1889    0.0000 H   0  0  0  0  0  0  0  0  0  0  0  0
   -0.1240   -3.5721    0.0000 H   0  0  0  0  0  0  0  0  0  0  0  0
   -1.1052   -3.3990    0.0000 H   0  0  0  0  0  0  0  0  0  0  0  0
   -2.3911   -2.6566    0.0000 H   0  0  0  0  0  0  0  0  0  0  0  0
   -3.0315   -1.8934    0.0000 H   0  0  0  0  0  0  0  0  0  0  0  0
   -3.5393   -0.4982    0.0000 H   0  0  0  0  0  0  0  0  0  0  0  0
   -3.5393    0.4982    0.0000 H   0  0  0  0  0  0  0  0  0  0  0  0
   -3.0315    1.8934    0.0000 H   0  0  0  0  0  0  0  0  0  0  0  0
   -2.3911    2.6566    0.0000 H   0  0  0  0  0  0  0  0  0  0  0  0
   -1.1052    3.3990    0.0000 H   0  0  0  0  0  0  0  0  0  0  0  0
   -0.1240    3.5721    0.0000 H   0  0  0  0  0  0  0  0  0  0  0  0
    1.3382    3.3142    0.0000 H   0  0  0  0  0  0  0  0  0  0  0  0
  1  2  1  0
  2  3  1  0
  3  4  1  0
  3  5  1  0
  5  6  1  0
  6  7  1  0
  5  8  1  0
  8  9  1  0
  9 10  1  0
 10 11  2  0
 11 12  2  0
 12 13  1  0
 13 14  1  0
 14 15  1  0
 15 16  1  0
 16 17  1  0
 17 18  1  0
  8  3  1  0
 18 10  1  0
  1 19  1  0
  1 20  1  0
  1 21  1  0
  2 22  1  0
  2 23  1  0
  4 24  1  0
  4 25  1  0
  4 26  1  0
  5 27  1  0
  6 28  1  0
  6 29  1  0
  7 30  1  0
  8 31  1  0
  9 32  1  0
  9 33  1  0
 12 34  1  0
 13 35  1  0
 13 36  1  0
 14 37  1  0
 14 38  1  0
 15 39  1  0
 15 40  1  0
 16 41  1  0
 16 42  1  0
 17 43  1  0
 17 44  1  0
 18 45  1  0
 18 46  1  0
M  END
$$$$
