
     RDKit          2D

 99103  0  0  0  0  0  0  0  0999 V2000
  -11.2683    6.5607    0.0000 C   0  0  0  0  0  0  0  0  0  0  0  0
  -10.6344    5.2012    0.0000 C   0  0  0  0  0  0  0  0  0  0  0  0
  -10.0005    3.8418    0.0000 C   0  0  0  0  0  0  0  0  0  0  0  0
   -9.3665    2.4823    0.0000 C   0  0  0  0  0  0  0  0  0  0  0  0
   -8.7326    1.1228    0.0000 C   0  0  0  0  0  0  0  0  0  0  0  0
   -8.0987   -0.2366    0.0000 C   0  0  0  0  0  0  0  0  0  0  0  0
   -7.4648   -1.5961    0.0000 C   0  0  0  0  0  0  0  0  0  0  0  0
   -6.1053   -0.9622    0.0000 C   0  0  0  0  0  0  0  0  0  0  0  0
   -5.4714   -2.3216    0.0000 P   0  0  0  0  0  0  0  0  0  0  0  0
   -5.6021   -3.8159    0.0000 C   0  0  0  0  0  0  0  0  0  0  0  0
   -5.2139   -5.2648    0.0000 C   0  0  0  0  0  0  0  0  0  0  0  0
   -4.8256   -6.7137    0.0000 C   0  0  0  0  0  0  0  0  0  0  0  0
   -6.2745   -7.1019    0.0000 C   0  0  0  0  0  0  0  0  0  0  0  0
   -5.8863   -8.5508    0.0000 C   0  0  0  0  0  0  0  0  0  0  0  0
   -4.4374   -8.1626    0.0000 C   0  0  0  0  0  0  0  0  0  0  0  0
   -4.0492   -9.6115    0.0000 O   0  0  0  0  0  0  0  0  0  0  0  0
   -2.9885   -7.7743    0.0000 C   0  0  0  0  0  0  0  0  0  0  0  0
   -1.9279   -8.8350    0.0000 O   0  0  0  0  0  0  0  0  0  0  0  0
   -4.2426   -3.1820    0.0000 C   0  0  0  0  0  0  0  0  0  0  0  0
   -3.3823   -4.4107    0.0000 O   0  0  0  0  0  0  0  0  0  0  0  0
   -3.1820   -2.1213    0.0000 C   0  0  0  0  0  0  0  0  0  0  0  0
   -2.1213   -1.0607    0.0000 C   0  0  0  0  0  0  0  0  0  0  0  0
   -1.0607   -2.1213    0.0000 C   0  0  0  0  0  0  0  0  0  0  0  0
   -0.0000   -3.1820    0.0000 C   0  0  0  0  0  0  0  0  0  0  0  0
   -0.0000   -1.0607    0.0000 C   0  0  0  0  0  0  0  0  0  0  0  0
    1.0607    0.0000    0.0000 C   0  0  0  0  0  0  0  0  0  0  0  0
    0.0000    1.0607    0.0000 O   0  0  0  0  0  0  0  0  0  0  0  0
   -1.0607    0.0000    0.0000 C   0  0  0  0  0  0  0  0  0  0  0  0
   -6.7392    0.3973    0.0000 C   0  0  0  0  0  0  0  0  0  0  0  0
   -5.3798    1.0312    0.0000 C   0  0  0  0  0  0  0  0  0  0  0  0
   -4.0203    1.6652    0.0000 C   0  0  0  0  0  0  0  0  0  0  0  0
   -2.6608    2.2991    0.0000 C   0  0  0  0  0  0  0  0  0  0  0  0
   -1.3014    2.9330    0.0000 C   0  0  0  0  0  0  0  0  0  0  0  0
    0.0581    3.5669    0.0000 C   0  0  0  0  0  0  0  0  0  0  0  0
    1.4175    4.2009    0.0000 C   0  0  0  0  0  0  0  0  0  0  0  0
   -1.9353    4.2925    0.0000 C   0  0  0  0  0  0  0  0  0  0  0  0
   -2.5692    5.6519    0.0000 C   0  0  0  0  0  0  0  0  0  0  0  0
   -3.2032    7.0114    0.0000 O   0  0  0  0  0  0  0  0  0  0  0  0
   -4.6975    7.1421    0.0000 C   0  0  0  0  0  0  0  0  0  0  0  0
   -6.1917    7.2729    0.0000 C   0  0  0  0  0  0  0  0  0  0  0  0
  -11.9022    7.9202    0.0000 H   0  0  0  0  0  0  0  0  0  0  0  0
  -12.6278    5.9268    0.0000 H   0  0  0  0  0  0  0  0  0  0  0  0
   -9.9089    7.1946    0.0000 H   0  0  0  0  0  0  0  0  0  0  0  0
  -11.9939    4.5673    0.0000 H   0  0  0  0  0  0  0  0  0  0  0  0
   -9.2749    5.8352    0.0000 H   0  0  0  0  0  0  0  0  0  0  0  0
   -8.6410    4.4757    0.0000 H   0  0  0  0  0  0  0  0  0  0  0  0
  -11.3599    3.2078    0.0000 H   0  0  0  0  0  0  0  0  0  0  0  0
  -10.7260    1.8484    0.0000 H   0  0  0  0  0  0  0  0  0  0  0  0
   -8.0071    3.1162    0.0000 H   0  0  0  0  0  0  0  0  0  0  0  0
   -7.4606    1.9178    0.0000 H   0  0  0  0  0  0  0  0  0  0  0  0
  -10.0921    0.4889    0.0000 H   0  0  0  0  0  0  0  0  0  0  0  0
   -9.4581   -0.8705    0.0000 H   0  0  0  0  0  0  0  0  0  0  0  0
   -8.8242   -2.2300    0.0000 H   0  0  0  0  0  0  0  0  0  0  0  0
   -6.8308   -2.9555    0.0000 H   0  0  0  0  0  0  0  0  0  0  0  0
   -4.7458   -0.3282    0.0000 H   0  0  0  0  0  0  0  0  0  0  0  0
   -7.0964   -3.9466    0.0000 H   0  0  0  0  0  0  0  0  0  0  0  0
   -6.0910   -5.3880    0.0000 H   0  0  0  0  0  0  0  0  0  0  0  0
   -4.4168   -5.2509    0.0000 H   0  0  0  0  0  0  0  0  0  0  0  0
   -3.3768   -6.3255    0.0000 H   0  0  0  0  0  0  0  0  0  0  0  0
   -7.7234   -7.4901    0.0000 H   0  0  0  0  0  0  0  0  0  0  0  0
   -6.6064   -6.2807    0.0000 H   0  0  0  0  0  0  0  0  0  0  0  0
   -5.4981   -9.9997    0.0000 H   0  0  0  0  0  0  0  0  0  0  0  0
   -7.3352   -8.9390    0.0000 H   0  0  0  0  0  0  0  0  0  0  0  0
   -2.6003   -9.9997    0.0000 H   0  0  0  0  0  0  0  0  0  0  0  0
   -2.4266   -6.3836    0.0000 H   0  0  0  0  0  0  0  0  0  0  0  0
   -3.6560   -5.2531    0.0000 H   0  0  0  0  0  0  0  0  0  0  0  0
   -2.2585   -3.3034    0.0000 H   0  0  0  0  0  0  0  0  0  0  0  0
   -4.2426   -1.0607    0.0000 H   0  0  0  0  0  0  0  0  0  0  0  0
   -3.3034   -0.1372    0.0000 H   0  0  0  0  0  0  0  0  0  0  0  0
   -1.9841   -3.3034    0.0000 H   0  0  0  0  0  0  0  0  0  0  0  0
    1.0607   -4.2426    0.0000 H   0  0  0  0  0  0  0  0  0  0  0  0
   -1.0607   -4.2426    0.0000 H   0  0  0  0  0  0  0  0  0  0  0  0
    1.1820   -2.2585    0.0000 H   0  0  0  0  0  0  0  0  0  0  0  0
    1.1820   -1.9841    0.0000 H   0  0  0  0  0  0  0  0  0  0  0  0
    2.1213    1.0607    0.0000 H   0  0  0  0  0  0  0  0  0  0  0  0
    2.1213   -1.0607    0.0000 H   0  0  0  0  0  0  0  0  0  0  0  0
   -2.2427    0.9235    0.0000 H   0  0  0  0  0  0  0  0  0  0  0  0
   -7.2027    1.8239    0.0000 H   0  0  0  0  0  0  0  0  0  0  0  0
   -6.0137    2.3907    0.0000 H   0  0  0  0  0  0  0  0  0  0  0  0
   -4.7458   -0.3282    0.0000 H   0  0  0  0  0  0  0  0  0  0  0  0
   -4.6542    3.0246    0.0000 H   0  0  0  0  0  0  0  0  0  0  0  0
   -3.5568    0.2386    0.0000 H   0  0  0  0  0  0  0  0  0  0  0  0
   -3.4558    3.5711    0.0000 H   0  0  0  0  0  0  0  0  0  0  0  0
   -2.1974    0.8725    0.0000 H   0  0  0  0  0  0  0  0  0  0  0  0
   -0.3573    1.7673    0.0000 H   0  0  0  0  0  0  0  0  0  0  0  0
   -0.4054    4.9935    0.0000 H   0  0  0  0  0  0  0  0  0  0  0  0
    0.6920    2.2075    0.0000 H   0  0  0  0  0  0  0  0  0  0  0  0
    2.7770    4.8348    0.0000 H   0  0  0  0  0  0  0  0  0  0  0  0
    2.0515    2.8414    0.0000 H   0  0  0  0  0  0  0  0  0  0  0  0
    0.7836    5.5603    0.0000 H   0  0  0  0  0  0  0  0  0  0  0  0
   -0.6633    5.0874    0.0000 H   0  0  0  0  0  0  0  0  0  0  0  0
   -3.3619    3.8290    0.0000 H   0  0  0  0  0  0  0  0  0  0  0  0
   -1.2098    6.2859    0.0000 H   0  0  0  0  0  0  0  0  0  0  0  0
   -3.9287    5.0180    0.0000 H   0  0  0  0  0  0  0  0  0  0  0  0
   -4.8282    5.6478    0.0000 H   0  0  0  0  0  0  0  0  0  0  0  0
   -4.5667    8.6364    0.0000 H   0  0  0  0  0  0  0  0  0  0  0  0
   -7.6860    7.4036    0.0000 H   0  0  0  0  0  0  0  0  0  0  0  0
   -6.3225    5.7786    0.0000 H   0  0  0  0  0  0  0  0  0  0  0  0
   -6.0610    8.7672    0.0000 H   0  0  0  0  0  0  0  0  0  0  0  0
  1  2  1  0
  2  3  1  0
  3  4  1  0
  4  5  1  0
  5  6  1  0
  6  7  1  0
  7  8  1  0
  8  9  1  0
  9 10  1  0
 10 11  1  0
 11 12  1  0
 12 13  1  0
 13 14  1  0
 14 15  1  0
 15 16  1  6
 15 17  1  0
 17 18  2  0
 10 19  1  0
 19 20  1  1
 19 21  1  0
 21 22  1  0
 22 23  1  0
 23 24  1  0
 23 25  1  0
 25 26  1  0
 26 27  1  0
 27 28  1  0
  8 29  1  0
 29 30  1  0
 30 31  1  0
 31 32  1  0
 32 33  1  0
 33 34  1  0
 34 35  1  0
 33 36  1  0
 36 37  1  0
 37 38  1  0
 38 39  1  0
 39 40  1  0
 29  6  1  0
 19  9  1  0
 28 22  1  0
 15 12  1  0
 28 25  1  0
  1 41  1  0
  1 42  1  0
  1 43  1  0
  2 44  1  0
  2 45  1  0
  3 46  1  0
  3 47  1  0
  4 48  1  0
  4 49  1  0
  5 50  1  0
  5 51  1  0
  6 52  1  1
  7 53  1  0
  7 54  1  0
  8 55  1  6
 10 56  1  1
 11 57  1  0
 11 58  1  0
 12 59  1  6
 13 60  1  0
 13 61  1  0
 14 62  1  0
 14 63  1  0
 16 64  1  0
 17 65  1  0
 20 66  1  0
 21 67  1  0
 21 68  1  0
 22 69  1  6
 23 70  1  6
 24 71  1  0
 24 72  1  0
 24 73  1  0
 25 74  1  1
 26 75  1  0
 26 76  1  0
 28 77  1  1
 29 78  1  1
 30 79  1  0
 30 80  1  0
 31 81  1  0
 31 82  1  0
 32 83  1  0
 32 84  1  0
 33 85  1  6
 34 86  1  0
 34 87  1  0
 35 88  1  0
 35 89  1  0
 35 90  1  0
 36 91  1  0
 36 92  1  0
 37 93  1  0
 37 94  1  0
 39 95  1  0
 39 96  1  0
 40 97  1  0
 40 98  1  0
 40 99  1  0
M  END
$$$$
