
     RDKit          2D

102114  0  0  0  0  0  0  0  0999 V2000
    0.8660    9.0000    0.0000 C   0  0  0  0  0  0  0  0  0  0  0  0
   -0.4330    8.2500    0.0000 C   0  0  0  0  0  0  0  0  0  0  0  0
   -0.4330    6.7500    0.0000 C   0  0  0  0  0  0  0  0  0  0  0  0
   -0.4330    5.2500    0.0000 C   0  0  0  0  0  0  0  0  0  0  0  0
   -1.9330    5.2500    0.0000 F   0  0  0  0  0  0  0  0  0  0  0  0
   -0.4330    3.7500    0.0000 C   0  0  0  0  0  0  0  0  0  0  0  0
   -0.4330    2.2500    0.0000 C   0  0  0  0  0  0  0  0  0  0  0  0
   -0.4330    0.7500    0.0000 C   0  0  0  0  0  0  0  0  0  0  0  0
    0.8660    0.0000    0.0000 C   0  0  0  0  0  0  0  0  0  0  0  0
    1.6160   -1.2990    0.0000 C   0  0  0  0  0  0  0  0  0  0  0  0
    1.3556   -2.7762    0.0000 C   0  0  0  0  0  0  0  0  0  0  0  0
    2.8454   -2.6021    0.0000 C   0  0  0  0  0  0  0  0  0  0  0  0
    3.9945   -1.6379    0.0000 C   0  0  0  0  0  0  0  0  0  0  0  0
    5.4945   -1.6379    0.0000 C   0  0  0  0  0  0  0  0  0  0  0  0
    5.7549   -0.1607    0.0000 C   0  0  0  0  0  0  0  0  0  0  0  0
    4.6569   -1.1827    0.0000 C   0  0  0  0  0  0  0  0  0  0  0  0
    4.7713   -2.6783    0.0000 C   0  0  0  0  0  0  0  0  0  0  0  0
    6.1540   -5.3784    0.0000 C   0  0  0  0  0  0  0  0  0  0  0  0
    4.7445   -5.8914    0.0000 C   0  0  0  0  0  0  0  0  0  0  0  0
    3.3349   -5.3784    0.0000 C   0  0  0  0  0  0  0  0  0  0  0  0
    1.8349   -5.3784    0.0000 C   0  0  0  0  0  0  0  0  0  0  0  0
    2.5849   -4.0793    0.0000 C   0  0  0  0  0  0  0  0  0  0  0  0
    6.9040   -4.0793    0.0000 C   0  0  0  0  0  0  0  0  0  0  0  0
    6.6435   -2.6021    0.0000 C   0  0  0  0  0  0  0  0  0  0  0  0
    6.9040   -1.1249    0.0000 C   0  0  0  0  0  0  0  0  0  0  0  0
    0.2065   -3.7404    0.0000 C   0  0  0  0  0  0  0  0  0  0  0  0
    0.2065   -5.2404    0.0000 C   0  0  0  0  0  0  0  0  0  0  0  0
   -1.2935   -5.2404    0.0000 C   0  0  0  0  0  0  0  0  0  0  0  0
   -2.7040   -5.7648    0.0000 C   0  0  0  0  0  0  0  0  0  0  0  0
   -3.9328   -4.9045    0.0000 C   0  0  0  0  0  0  0  0  0  0  0  0
   -5.4271   -4.7737    0.0000 C   0  0  0  0  0  0  0  0  0  0  0  0
   -3.9636   -3.8715    0.0000 C   0  0  0  0  0  0  0  0  0  0  0  0
   -3.9478   -3.6996    0.0000 C   0  0  0  0  0  0  0  0  0  0  0  0
   -2.4426   -2.7762    0.0000 C   0  0  0  0  0  0  0  0  0  0  0  0
   -2.7031   -1.2990    0.0000 N   0  0  0  0  0  0  0  0  0  0  0  0
   -1.7321    0.0000    0.0000 C   0  0  0  0  0  0  0  0  0  0  0  0
   -0.4330   -0.7500    0.0000 C   0  0  0  0  0  0  0  0  0  0  0  0
   -3.8020   -3.4102    0.0000 C   0  0  0  0  0  0  0  0  0  0  0  0
   -5.2963   -3.2794    0.0000 N   0  0  0  0  0  0  0  0  0  0  0  0
   -1.2935   -3.7404    0.0000 C   0  0  0  0  0  0  0  0  0  0  0  0
   -1.7321    9.0000    0.0000 C   0  0  0  0  0  0  0  0  0  0  0  0
   -3.0311    9.7500    0.0000 C   0  0  0  0  0  0  0  0  0  0  0  0
   -2.2811   11.0490    0.0000 C   0  0  0  0  0  0  0  0  0  0  0  0
   -3.5801   11.7990    0.0000 O   0  0  0  0  0  0  0  0  0  0  0  0
   -4.3301   10.5000    0.0000 C   0  0  0  0  0  0  0  0  0  0  0  0
    0.8660   10.5000    0.0000 H   0  0  0  0  0  0  0  0  0  0  0  0
    2.1651    8.2500    0.0000 H   0  0  0  0  0  0  0  0  0  0  0  0
    1.0670    6.7500    0.0000 H   0  0  0  0  0  0  0  0  0  0  0  0
   -1.9330    6.7500    0.0000 H   0  0  0  0  0  0  0  0  0  0  0  0
    1.0670    5.2500    0.0000 H   0  0  0  0  0  0  0  0  0  0  0  0
    1.0670    3.7500    0.0000 H   0  0  0  0  0  0  0  0  0  0  0  0
   -1.9330    3.7500    0.0000 H   0  0  0  0  0  0  0  0  0  0  0  0
   -1.9330    2.2500    0.0000 H   0  0  0  0  0  0  0  0  0  0  0  0
    1.0670    2.2500    0.0000 H   0  0  0  0  0  0  0  0  0  0  0  0
    2.3214    0.3630    0.0000 H   0  0  0  0  0  0  0  0  0  0  0  0
    2.6454   -0.2080    0.0000 H   0  0  0  0  0  0  0  0  0  0  0  0
    2.9565   -1.9722    0.0000 H   0  0  0  0  0  0  0  0  0  0  0  0
    1.5987   -4.2564    0.0000 H   0  0  0  0  0  0  0  0  0  0  0  0
    2.4236   -1.1626    0.0000 H   0  0  0  0  0  0  0  0  0  0  0  0
    3.1200   -0.4192    0.0000 H   0  0  0  0  0  0  0  0  0  0  0  0
    4.2463   -0.1592    0.0000 H   0  0  0  0  0  0  0  0  0  0  0  0
    5.2419    1.2488    0.0000 H   0  0  0  0  0  0  0  0  0  0  0  0
    4.0688    0.1972    0.0000 H   0  0  0  0  0  0  0  0  0  0  0  0
    3.1593   -1.2671    0.0000 H   0  0  0  0  0  0  0  0  0  0  0  0
    3.3576   -3.1796    0.0000 H   0  0  0  0  0  0  0  0  0  0  0  0
    4.2255   -4.0754    0.0000 H   0  0  0  0  0  0  0  0  0  0  0  0
    7.1182   -6.5274    0.0000 H   0  0  0  0  0  0  0  0  0  0  0  0
    5.6402   -7.0946    0.0000 H   0  0  0  0  0  0  0  0  0  0  0  0
    4.0021   -7.1948    0.0000 H   0  0  0  0  0  0  0  0  0  0  0  0
    2.8963   -6.8128    0.0000 H   0  0  0  0  0  0  0  0  0  0  0  0
    1.5745   -6.8556    0.0000 H   0  0  0  0  0  0  0  0  0  0  0  0
    0.3734   -5.0410    0.0000 H   0  0  0  0  0  0  0  0  0  0  0  0
    1.1754   -3.5663    0.0000 H   0  0  0  0  0  0  0  0  0  0  0  0
    8.3165   -3.5745    0.0000 H   0  0  0  0  0  0  0  0  0  0  0  0
    7.9334   -5.1704    0.0000 H   0  0  0  0  0  0  0  0  0  0  0  0
    8.1324   -2.4193    0.0000 H   0  0  0  0  0  0  0  0  0  0  0  0
    8.3136   -0.6119    0.0000 H   0  0  0  0  0  0  0  0  0  0  0  0
   -0.3555   -2.3497    0.0000 H   0  0  0  0  0  0  0  0  0  0  0  0
    0.2065   -6.7404    0.0000 H   0  0  0  0  0  0  0  0  0  0  0  0
    1.6619   -5.6034    0.0000 H   0  0  0  0  0  0  0  0  0  0  0  0
   -1.9035   -6.6108    0.0000 H   0  0  0  0  0  0  0  0  0  0  0  0
   -3.6275   -6.9469    0.0000 H   0  0  0  0  0  0  0  0  0  0  0  0
   -1.9999   -7.0893    0.0000 H   0  0  0  0  0  0  0  0  0  0  0  0
   -4.6138   -6.2410    0.0000 H   0  0  0  0  0  0  0  0  0  0  0  0
   -6.5761   -5.7379    0.0000 H   0  0  0  0  0  0  0  0  0  0  0  0
   -5.4683   -1.5121    0.0000 H   0  0  0  0  0  0  0  0  0  0  0  0
   -6.4917   -3.3058    0.0000 H   0  0  0  0  0  0  0  0  0  0  0  0
   -3.2216   -0.7251    0.0000 H   0  0  0  0  0  0  0  0  0  0  0  0
   -4.9507   -1.1657    0.0000 H   0  0  0  0  0  0  0  0  0  0  0  0
   -4.1375   -0.8604    0.0000 H   0  0  0  0  0  0  0  0  0  0  0  0
   -3.2321    0.0000    0.0000 H   0  0  0  0  0  0  0  0  0  0  0  0
   -0.6159   -2.2388    0.0000 H   0  0  0  0  0  0  0  0  0  0  0  0
   -2.8379   -4.5592    0.0000 H   0  0  0  0  0  0  0  0  0  0  0  0
   -6.3934   -2.2565    0.0000 H   0  0  0  0  0  0  0  0  0  0  0  0
    0.2028   -3.8449    0.0000 H   0  0  0  0  0  0  0  0  0  0  0  0
   -0.8293   10.1979    0.0000 H   0  0  0  0  0  0  0  0  0  0  0  0
   -2.4821    7.7010    0.0000 H   0  0  0  0  0  0  0  0  0  0  0  0
   -3.7811    8.4510    0.0000 H   0  0  0  0  0  0  0  0  0  0  0  0
   -1.5311   12.3481    0.0000 H   0  0  0  0  0  0  0  0  0  0  0  0
   -0.9003   10.4630    0.0000 H   0  0  0  0  0  0  0  0  0  0  0  0
   -5.0801    9.2010    0.0000 H   0  0  0  0  0  0  0  0  0  0  0  0
   -5.6292   11.2500    0.0000 H   0  0  0  0  0  0  0  0  0  0  0  0
  1  2  2  3
  2  3  1  0
  3  4  1  0
  4  5  1  0
  4  6  1  0
  6  7  1  0
  7  8  1  0
  8  9  1  0
  9 10  1  0
 10 11  1  0
 11 12  1  0
 12 13  1  0
 13 14  1  0
 14 15  1  0
 15 16  1  0
 16 17  1  0
 17 18  1  0
 18 19  1  0
 19 20  1  0
 20 21  1  0
 21 22  1  0
 18 23  1  0
 23 24  1  0
 24 25  1  0
 11 26  1  0
 26 27  1  0
 27 28  1  0
 28 29  1  0
 29 30  1  0
 30 31  1  0
 31 32  1  0
 32 33  1  0
 33 34  1  0
 34 35  1  0
 35 36  1  0
 36 37  1  0
 34 38  1  0
 38 39  1  0
 34 40  1  0
  2 41  1  0
 41 42  1  0
 42 43  1  0
 43 44  1  0
 44 45  1  0
 36  8  1  0
 45 42  1  0
 37  8  1  0
 37  9  1  0
 22 12  1  0
 40 26  1  0
 24 14  1  0
 40 28  1  0
 25 14  1  0
 38 30  1  0
 25 15  1  0
 39 31  1  0
 22 20  1  0
  1 46  1  0
  1 47  1  0
  3 48  1  0
  3 49  1  0
  4 50  1  0
  6 51  1  0
  6 52  1  0
  7 53  1  0
  7 54  1  0
  9 55  1  0
 10 56  1  0
 10 57  1  0
 11 58  1  0
 12 59  1  0
 13 60  1  0
 13 61  1  0
 15 62  1  0
 16 63  1  0
 16 64  1  0
 17 65  1  0
 17 66  1  0
 18 67  1  0
 19 68  1  0
 19 69  1  0
 20 70  1  0
 21 71  1  0
 21 72  1  0
 22 73  1  0
 23 74  1  0
 23 75  1  0
 24 76  1  0
 25 77  1  0
 26 78  1  0
 27 79  1  0
 27 80  1  0
 28 81  1  0
 29 82  1  0
 29 83  1  0
 30 84  1  0
 31 85  1  0
 32 86  1  0
 32 87  1  0
 33 88  1  0
 33 89  1  0
 35 90  1  0
 36 91  1  0
 37 92  1  0
 38 93  1  0
 39 94  1  0
 40 95  1  0
 41 96  1  0
 41 97  1  0
 42 98  1  0
 43 99  1  0
 43100  1  0
 45101  1  0
 45102  1  0
M  END
$$$$
