
     RDKit          2D

 41 44  0  0  0  0  0  0  0  0999 V2000
    1.2694   -5.7280    0.0000 Cl  0  0  0  0  0  0  0  0  0  0  0  0
    1.0607   -4.2426    0.0000 N   0  0  0  0  0  0  0  0  0  0  0  0
    2.1213   -3.1820    0.0000 C   0  0  0  0  0  0  0  0  0  0  0  0
    1.0607   -2.1213    0.0000 C   0  0  0  0  0  0  0  0  0  0  0  0
    0.0000   -1.0607    0.0000 C   0  0  0  0  0  0  0  0  0  0  0  0
    1.0607    0.0000    0.0000 C   0  0  0  0  0  0  0  0  0  0  0  0
    0.0000    1.0607    0.0000 C   0  0  0  0  0  0  0  0  0  0  0  0
   -1.0607    0.0000    0.0000 C   0  0  0  0  0  0  0  0  0  0  0  0
    3.1820   -4.2426    0.0000 C   0  0  0  0  0  0  0  0  0  0  0  0
    4.4107   -3.3823    0.0000 C   0  0  0  0  0  0  0  0  0  0  0  0
    5.7702   -4.0162    0.0000 C   0  0  0  0  0  0  0  0  0  0  0  0
    6.6305   -2.7875    0.0000 C   0  0  0  0  0  0  0  0  0  0  0  0
    7.4909   -1.5587    0.0000 C   0  0  0  0  0  0  0  0  0  0  0  0
    8.7196   -2.4191    0.0000 C   0  0  0  0  0  0  0  0  0  0  0  0
    9.5800   -1.1904    0.0000 C   0  0  0  0  0  0  0  0  0  0  0  0
    8.3513   -0.3300    0.0000 C   0  0  0  0  0  0  0  0  0  0  0  0
    4.5414   -4.8766    0.0000 C   0  0  0  0  0  0  0  0  0  0  0  0
   -0.4247   -4.0339    0.0000 H   0  0  0  0  0  0  0  0  0  0  0  0
    3.1820   -2.1213    0.0000 H   0  0  0  0  0  0  0  0  0  0  0  0
    1.7586   -1.5760    0.0000 H   0  0  0  0  0  0  0  0  0  0  0  0
   -0.1214   -3.0448    0.0000 H   0  0  0  0  0  0  0  0  0  0  0  0
   -1.0607   -2.1213    0.0000 H   0  0  0  0  0  0  0  0  0  0  0  0
    2.1213    1.0607    0.0000 H   0  0  0  0  0  0  0  0  0  0  0  0
    1.7586   -0.5453    0.0000 H   0  0  0  0  0  0  0  0  0  0  0  0
   -1.0607    2.1213    0.0000 H   0  0  0  0  0  0  0  0  0  0  0  0
    1.0607    2.1213    0.0000 H   0  0  0  0  0  0  0  0  0  0  0  0
   -2.1213   -1.0607    0.0000 H   0  0  0  0  0  0  0  0  0  0  0  0
   -2.1213    1.0607    0.0000 H   0  0  0  0  0  0  0  0  0  0  0  0
    2.4778   -5.5671    0.0000 H   0  0  0  0  0  0  0  0  0  0  0  0
    4.2800   -1.8880    0.0000 H   0  0  0  0  0  0  0  0  0  0  0  0
    6.8308   -5.0769    0.0000 H   0  0  0  0  0  0  0  0  0  0  0  0
    7.2887   -3.3802    0.0000 H   0  0  0  0  0  0  0  0  0  0  0  0
    5.4018   -1.9271    0.0000 H   0  0  0  0  0  0  0  0  0  0  0  0
    6.2622   -0.6984    0.0000 H   0  0  0  0  0  0  0  0  0  0  0  0
    9.9484   -3.2795    0.0000 H   0  0  0  0  0  0  0  0  0  0  0  0
    8.3038   -3.2012    0.0000 H   0  0  0  0  0  0  0  0  0  0  0  0
   10.4404    0.0383    0.0000 H   0  0  0  0  0  0  0  0  0  0  0  0
   10.8087   -2.0507    0.0000 H   0  0  0  0  0  0  0  0  0  0  0  0
    7.1225    0.5303    0.0000 H   0  0  0  0  0  0  0  0  0  0  0  0
    9.2116    0.8987    0.0000 H   0  0  0  0  0  0  0  0  0  0  0  0
    4.6722   -6.3709    0.0000 H   0  0  0  0  0  0  0  0  0  0  0  0
  1  2  1  0
  2  3  1  0
  3  4  1  0
  4  5  1  0
  5  6  1  0
  6  7  1  0
  7  8  1  0
  3  9  1  0
  9 10  1  0
 10 11  1  0
 11 12  1  0
 12 13  1  0
 13 14  1  0
 14 15  1  0
 15 16  1  0
 11 17  1  0
  8  5  1  0
 17  9  1  0
 17 10  1  0
 16 13  1  0
  2 18  1  0
  3 19  1  0
  4 20  1  0
  4 21  1  0
  5 22  1  0
  6 23  1  0
  6 24  1  0
  7 25  1  0
  7 26  1  0
  8 27  1  0
  8 28  1  0
  9 29  1  0
 10 30  1  0
 11 31  1  0
 12 32  1  0
 12 33  1  0
 13 34  1  0
 14 35  1  0
 14 36  1  0
 15 37  1  0
 15 38  1  0
 16 39  1  0
 16 40  1  0
 17 41  1  0
M  END
$$$$
