
     RDKit          2D

 30 31  0  0  0  0  0  0  0  0999 V2000
   -0.1946   -4.0607    0.0000 C   0  0  0  0  0  0  0  0  0  0  0  0
   -0.1946   -2.5607    0.0000 C   0  0  0  0  0  0  0  0  0  0  0  0
   -1.4937   -1.8107    0.0000 C   0  0  0  0  0  0  0  0  0  0  0  0
   -2.9937   -1.8107    0.0000 C   0  0  0  0  0  0  0  0  0  0  0  0
   -4.0543   -0.7500    0.0000 C   0  0  0  0  0  0  0  0  0  0  0  0
   -4.0543    0.7500    0.0000 C   0  0  0  0  0  0  0  0  0  0  0  0
   -2.9937    1.8107    0.0000 C   0  0  0  0  0  0  0  0  0  0  0  0
   -4.2927    2.5607    0.0000 C   0  0  0  0  0  0  0  0  0  0  0  0
   -1.4937    1.8107    0.0000 O   0  0  0  0  0  0  0  0  0  0  0  0
   -0.4330    0.7500    0.0000 C   0  0  0  0  0  0  0  0  0  0  0  0
    0.8660    0.0000    0.0000 C   0  0  0  0  0  0  0  0  0  0  0  0
   -0.4330   -0.7500    0.0000 C   0  0  0  0  0  0  0  0  0  0  0  0
    1.1044   -4.8107    0.0000 H   0  0  0  0  0  0  0  0  0  0  0  0
   -1.4937   -4.8107    0.0000 H   0  0  0  0  0  0  0  0  0  0  0  0
    1.1861   -1.9746    0.0000 H   0  0  0  0  0  0  0  0  0  0  0  0
   -1.7024   -3.2961    0.0000 H   0  0  0  0  0  0  0  0  0  0  0  0
   -2.7850   -3.2961    0.0000 H   0  0  0  0  0  0  0  0  0  0  0  0
   -4.1916   -2.7134    0.0000 H   0  0  0  0  0  0  0  0  0  0  0  0
   -4.9571   -1.9479    0.0000 H   0  0  0  0  0  0  0  0  0  0  0  0
   -5.5397   -0.5413    0.0000 H   0  0  0  0  0  0  0  0  0  0  0  0
   -5.3912    0.5622    0.0000 H   0  0  0  0  0  0  0  0  0  0  0  0
   -4.7427    1.3074    0.0000 H   0  0  0  0  0  0  0  0  0  0  0  0
   -2.6054    3.2595    0.0000 H   0  0  0  0  0  0  0  0  0  0  0  0
   -5.5917    3.3107    0.0000 H   0  0  0  0  0  0  0  0  0  0  0  0
   -3.5427    3.8597    0.0000 H   0  0  0  0  0  0  0  0  0  0  0  0
   -4.7725    1.9240    0.0000 H   0  0  0  0  0  0  0  0  0  0  0  0
    0.4801    1.9400    0.0000 H   0  0  0  0  0  0  0  0  0  0  0  0
    1.8302    1.1491    0.0000 H   0  0  0  0  0  0  0  0  0  0  0  0
    1.8302   -1.1491    0.0000 H   0  0  0  0  0  0  0  0  0  0  0  0
    0.6184   -1.8198    0.0000 H   0  0  0  0  0  0  0  0  0  0  0  0
  1  2  2  3
  2  3  1  0
  3  4  1  0
  4  5  1  0
  5  6  1  0
  6  7  1  0
  7  8  1  0
  7  9  1  0
  9 10  1  0
 10 11  1  0
 11 12  1  0
 12  3  1  0
 12 10  1  0
  1 13  1  0
  1 14  1  0
  2 15  1  0
  3 16  1  0
  4 17  1  0
  4 18  1  0
  5 19  1  0
  5 20  1  0
  6 21  1  0
  6 22  1  0
  7 23  1  0
  8 24  1  0
  8 25  1  0
  8 26  1  0
 10 27  1  0
 11 28  1  0
 11 29  1  0
 12 30  1  0
M  END
$$$$
