
     RDKit          2D

 21 21  0  0  0  0  0  0  0  0999 V2000
    3.7981    1.9284    0.0000 N   0  0  0  0  0  0  0  0  0  0  0  0
    2.6491    0.9642    0.0000 C   0  0  0  0  0  0  0  0  0  0  0  0
    1.5000    0.0000    0.0000 C   0  0  0  0  0  0  0  0  0  0  0  0
    0.7500   -1.2990    0.0000 C   0  0  0  0  0  0  0  0  0  0  0  0
   -0.7500   -1.2990    0.0000 N   0  0  0  0  0  0  0  0  0  0  0  0
   -1.5000    0.0000    0.0000 C   0  0  0  0  0  0  0  0  0  0  0  0
   -0.7500    1.2990    0.0000 N   0  0  0  0  0  0  0  0  0  0  0  0
    0.7500    1.2990    0.0000 C   0  0  0  0  0  0  0  0  0  0  0  0
    0.4895    2.7762    0.0000 N   0  0  0  0  0  0  0  0  0  0  0  0
    5.2077    1.4153    0.0000 H   0  0  0  0  0  0  0  0  0  0  0  0
    3.5377    3.4056    0.0000 H   0  0  0  0  0  0  0  0  0  0  0  0
    3.6132   -0.1849    0.0000 H   0  0  0  0  0  0  0  0  0  0  0  0
    2.2149    1.6327    0.0000 H   0  0  0  0  0  0  0  0  0  0  0  0
    2.6491   -0.9642    0.0000 H   0  0  0  0  0  0  0  0  0  0  0  0
    2.1595   -1.8121    0.0000 H   0  0  0  0  0  0  0  0  0  0  0  0
    0.4895   -2.7762    0.0000 H   0  0  0  0  0  0  0  0  0  0  0  0
   -1.5000   -2.5981    0.0000 H   0  0  0  0  0  0  0  0  0  0  0  0
   -3.0000    0.0000    0.0000 H   0  0  0  0  0  0  0  0  0  0  0  0
    1.4603    1.6610    0.0000 H   0  0  0  0  0  0  0  0  0  0  0  0
    1.6386    3.7404    0.0000 H   0  0  0  0  0  0  0  0  0  0  0  0
   -0.9200    3.2893    0.0000 H   0  0  0  0  0  0  0  0  0  0  0  0
  1  2  1  0
  2  3  1  0
  3  4  1  0
  4  5  1  0
  5  6  1  0
  6  7  2  0
  7  8  1  0
  8  9  1  0
  8  3  1  0
  1 10  1  0
  1 11  1  0
  2 12  1  0
  2 13  1  0
  3 14  1  0
  4 15  1  0
  4 16  1  0
  5 17  1  0
  6 18  1  0
  8 19  1  0
  9 20  1  0
  9 21  1  0
M  END
$$$$
