
     RDKit          2D

108112  0  0  0  0  0  0  0  0999 V2000
  -10.8641  -11.1443    0.0000 C   0  0  0  0  0  0  0  0  0  0  0  0
   -9.8034  -10.0836    0.0000 C   0  0  0  0  0  0  0  0  0  0  0  0
   -8.7428   -9.0229    0.0000 C   0  0  0  0  0  0  0  0  0  0  0  0
   -7.6821   -7.9623    0.0000 C   0  0  0  0  0  0  0  0  0  0  0  0
   -6.6215   -6.9016    0.0000 C   0  0  0  0  0  0  0  0  0  0  0  0
   -5.5608   -5.8410    0.0000 C   0  0  0  0  0  0  0  0  0  0  0  0
   -4.5001   -4.7803    0.0000 C   0  0  0  0  0  0  0  0  0  0  0  0
   -3.4395   -3.7196    0.0000 C   0  0  0  0  0  0  0  0  0  0  0  0
   -2.3788   -2.6590    0.0000 C   0  0  0  0  0  0  0  0  0  0  0  0
   -1.3182   -1.5983    0.0000 O   0  0  0  0  0  0  0  0  0  0  0  0
    0.1307   -1.9865    0.0000 C   0  0  0  0  0  0  0  0  0  0  0  0
    0.7647   -0.6271    0.0000 C   0  0  0  0  0  0  0  0  0  0  0  0
    1.6250   -1.8558    0.0000 C   0  0  0  0  0  0  0  0  0  0  0  0
    2.2590   -0.4964    0.0000 C   0  0  0  0  0  0  0  0  0  0  0  0
    3.7078   -0.8846    0.0000 C   0  0  0  0  0  0  0  0  0  0  0  0
    2.3897    0.9979    0.0000 C   0  0  0  0  0  0  0  0  0  0  0  0
    2.5204    2.4922    0.0000 C   0  0  0  0  0  0  0  0  0  0  0  0
   -3.4395   -5.8410    0.0000 C   0  0  0  0  0  0  0  0  0  0  0  0
   -2.3788   -6.9016    0.0000 C   0  0  0  0  0  0  0  0  0  0  0  0
   -1.3182   -7.9623    0.0000 C   0  0  0  0  0  0  0  0  0  0  0  0
   -1.3182   -5.8410    0.0000 O   0  0  0  0  0  0  0  0  0  0  0  0
   -1.7064   -4.3921    0.0000 N   0  0  0  0  0  0  0  0  0  0  0  0
   -1.3182   -2.9432    0.0000 C   0  0  0  0  0  0  0  0  0  0  0  0
    0.1761   -3.0739    0.0000 C   0  0  0  0  0  0  0  0  0  0  0  0
   -2.7670   -3.3314    0.0000 C   0  0  0  0  0  0  0  0  0  0  0  0
   -3.4010   -1.9719    0.0000 C   0  0  0  0  0  0  0  0  0  0  0  0
   -4.8499   -2.3602    0.0000 C   0  0  0  0  0  0  0  0  0  0  0  0
   -6.2987   -1.9719    0.0000 O   0  0  0  0  0  0  0  0  0  0  0  0
   -5.9105   -0.5231    0.0000 C   0  0  0  0  0  0  0  0  0  0  0  0
   -5.5223    0.9258    0.0000 C   0  0  0  0  0  0  0  0  0  0  0  0
   -7.3594   -0.1348    0.0000 C   0  0  0  0  0  0  0  0  0  0  0  0
   -8.8083    0.2534    0.0000 C   0  0  0  0  0  0  0  0  0  0  0  0
  -10.2572    0.6416    0.0000 C   0  0  0  0  0  0  0  0  0  0  0  0
  -11.7061    1.0299    0.0000 C   0  0  0  0  0  0  0  0  0  0  0  0
  -13.1550    1.4181    0.0000 O   0  0  0  0  0  0  0  0  0  0  0  0
   -9.8690    2.0905    0.0000 C   0  0  0  0  0  0  0  0  0  0  0  0
   -9.4807    3.5394    0.0000 C   0  0  0  0  0  0  0  0  0  0  0  0
   -9.0925    4.9883    0.0000 O   0  0  0  0  0  0  0  0  0  0  0  0
   -4.4616   -0.9113    0.0000 C   0  0  0  0  0  0  0  0  0  0  0  0
   -3.7116    0.3878    0.0000 C   0  0  0  0  0  0  0  0  0  0  0  0
   -8.7428   -6.9016    0.0000 C   0  0  0  0  0  0  0  0  0  0  0  0
   -9.8034   -5.8410    0.0000 C   0  0  0  0  0  0  0  0  0  0  0  0
   -9.8034   -7.9623    0.0000 O   0  0  0  0  0  0  0  0  0  0  0  0
  -11.9248  -12.2049    0.0000 H   0  0  0  0  0  0  0  0  0  0  0  0
  -11.9248  -10.0836    0.0000 H   0  0  0  0  0  0  0  0  0  0  0  0
   -9.8034  -12.2049    0.0000 H   0  0  0  0  0  0  0  0  0  0  0  0
   -8.7428  -11.1443    0.0000 H   0  0  0  0  0  0  0  0  0  0  0  0
  -10.8641   -9.0229    0.0000 H   0  0  0  0  0  0  0  0  0  0  0  0
   -7.6821  -10.0836    0.0000 H   0  0  0  0  0  0  0  0  0  0  0  0
   -9.4261   -8.6124    0.0000 H   0  0  0  0  0  0  0  0  0  0  0  0
   -6.6215   -9.0229    0.0000 H   0  0  0  0  0  0  0  0  0  0  0  0
   -5.5608   -7.9623    0.0000 H   0  0  0  0  0  0  0  0  0  0  0  0
   -7.5449   -5.7196    0.0000 H   0  0  0  0  0  0  0  0  0  0  0  0
   -4.6373   -7.0230    0.0000 H   0  0  0  0  0  0  0  0  0  0  0  0
   -6.6215   -4.7803    0.0000 H   0  0  0  0  0  0  0  0  0  0  0  0
   -5.6822   -3.8568    0.0000 H   0  0  0  0  0  0  0  0  0  0  0  0
   -4.7253   -2.9472    0.0000 H   0  0  0  0  0  0  0  0  0  0  0  0
   -2.0691   -4.3296    0.0000 H   0  0  0  0  0  0  0  0  0  0  0  0
   -3.1513   -1.3732    0.0000 H   0  0  0  0  0  0  0  0  0  0  0  0
   -0.9443   -3.0974    0.0000 H   0  0  0  0  0  0  0  0  0  0  0  0
    0.3655   -3.4681    0.0000 H   0  0  0  0  0  0  0  0  0  0  0  0
   -0.0957    0.6016    0.0000 H   0  0  0  0  0  0  0  0  0  0  0  0
    2.6288   -2.9705    0.0000 H   0  0  0  0  0  0  0  0  0  0  0  0
    5.1567   -1.2728    0.0000 H   0  0  0  0  0  0  0  0  0  0  0  0
    4.2698    0.5062    0.0000 H   0  0  0  0  0  0  0  0  0  0  0  0
    3.3196   -2.3335    0.0000 H   0  0  0  0  0  0  0  0  0  0  0  0
    3.8888    1.0503    0.0000 H   0  0  0  0  0  0  0  0  0  0  0  0
    0.8954    1.1287    0.0000 H   0  0  0  0  0  0  0  0  0  0  0  0
    2.6512    3.9865    0.0000 H   0  0  0  0  0  0  0  0  0  0  0  0
    1.0261    2.6230    0.0000 H   0  0  0  0  0  0  0  0  0  0  0  0
    4.0147    2.3615    0.0000 H   0  0  0  0  0  0  0  0  0  0  0  0
   -2.5160   -4.6589    0.0000 H   0  0  0  0  0  0  0  0  0  0  0  0
   -4.3629   -7.0230    0.0000 H   0  0  0  0  0  0  0  0  0  0  0  0
   -3.4395   -7.9623    0.0000 H   0  0  0  0  0  0  0  0  0  0  0  0
   -0.2575   -9.0229    0.0000 H   0  0  0  0  0  0  0  0  0  0  0  0
   -2.3788   -9.0229    0.0000 H   0  0  0  0  0  0  0  0  0  0  0  0
   -0.2575   -6.9016    0.0000 H   0  0  0  0  0  0  0  0  0  0  0  0
   -0.9046   -1.5013    0.0000 H   0  0  0  0  0  0  0  0  0  0  0  0
    1.6433   -3.3858    0.0000 H   0  0  0  0  0  0  0  0  0  0  0  0
    0.6646   -1.6557    0.0000 H   0  0  0  0  0  0  0  0  0  0  0  0
    0.0454   -4.5682    0.0000 H   0  0  0  0  0  0  0  0  0  0  0  0
   -4.2559   -3.5141    0.0000 H   0  0  0  0  0  0  0  0  0  0  0  0
   -2.1722   -1.1116    0.0000 H   0  0  0  0  0  0  0  0  0  0  0  0
   -5.0327   -3.8490    0.0000 H   0  0  0  0  0  0  0  0  0  0  0  0
   -5.1341    2.3747    0.0000 H   0  0  0  0  0  0  0  0  0  0  0  0
   -6.9131    1.4878    0.0000 H   0  0  0  0  0  0  0  0  0  0  0  0
   -4.0225    0.8997    0.0000 H   0  0  0  0  0  0  0  0  0  0  0  0
   -7.7476   -1.5837    0.0000 H   0  0  0  0  0  0  0  0  0  0  0  0
   -7.1507    1.3506    0.0000 H   0  0  0  0  0  0  0  0  0  0  0  0
   -9.1965   -1.1955    0.0000 H   0  0  0  0  0  0  0  0  0  0  0  0
   -8.2464    1.6442    0.0000 H   0  0  0  0  0  0  0  0  0  0  0  0
  -10.6454   -0.8073    0.0000 H   0  0  0  0  0  0  0  0  0  0  0  0
  -12.0943   -0.4190    0.0000 H   0  0  0  0  0  0  0  0  0  0  0  0
  -11.4974    2.5153    0.0000 H   0  0  0  0  0  0  0  0  0  0  0  0
  -14.2156    0.3574    0.0000 H   0  0  0  0  0  0  0  0  0  0  0  0
  -11.2597    2.6525    0.0000 H   0  0  0  0  0  0  0  0  0  0  0  0
   -8.3836    1.8818    0.0000 H   0  0  0  0  0  0  0  0  0  0  0  0
  -10.9296    3.9276    0.0000 H   0  0  0  0  0  0  0  0  0  0  0  0
   -8.0318    3.1512    0.0000 H   0  0  0  0  0  0  0  0  0  0  0  0
   -7.6436    5.3765    0.0000 H   0  0  0  0  0  0  0  0  0  0  0  0
   -2.9616    1.6868    0.0000 H   0  0  0  0  0  0  0  0  0  0  0  0
   -4.7906    1.4298    0.0000 H   0  0  0  0  0  0  0  0  0  0  0  0
   -2.3309   -0.1983    0.0000 H   0  0  0  0  0  0  0  0  0  0  0  0
   -7.8193   -5.7196    0.0000 H   0  0  0  0  0  0  0  0  0  0  0  0
  -10.8641   -4.7803    0.0000 H   0  0  0  0  0  0  0  0  0  0  0  0
  -10.9855   -6.7644    0.0000 H   0  0  0  0  0  0  0  0  0  0  0  0
   -8.7428   -4.7803    0.0000 H   0  0  0  0  0  0  0  0  0  0  0  0
  -11.2888   -7.7536    0.0000 H   0  0  0  0  0  0  0  0  0  0  0  0
  1  2  1  0
  2  3  1  0
  3  4  1  0
  4  5  1  0
  5  6  1  0
  6  7  1  0
  7  8  1  0
  8  9  1  0
  9 10  1  0
 10 11  1  0
 11 12  1  0
 12 13  1  0
 13 14  1  0
 14 15  1  1
 14 16  1  0
 16 17  1  0
  7 18  1  0
 18 19  1  0
 19 20  1  0
 19 21  1  0
 21 22  1  0
 22 23  1  0
 23 24  1  0
 23 25  1  0
 25 26  1  0
 26 27  1  0
 27 28  1  0
 28 29  1  0
 29 30  1  1
 29 31  1  0
 31 32  1  0
 32 33  1  0
 33 34  1  0
 34 35  1  0
 33 36  1  0
 36 37  1  0
 37 38  1  0
 29 39  1  0
 39 40  1  6
  4 41  1  0
 41 42  1  0
 41 43  1  0
 13 11  1  0
 25 22  1  0
 39 26  1  0
 14 12  1  0
 39 27  1  0
  1 44  1  0
  1 45  1  0
  1 46  1  0
  2 47  1  0
  2 48  1  0
  3 49  1  0
  3 50  1  0
  4 51  1  6
  5 52  1  0
  5 53  1  0
  6 54  1  0
  6 55  1  0
  7 56  1  6
  8 57  1  0
  8 58  1  0
  9 59  1  0
  9 60  1  0
 11 61  1  6
 12 62  1  1
 13 63  1  1
 15 64  1  0
 15 65  1  0
 15 66  1  0
 16 67  1  0
 16 68  1  0
 17 69  1  0
 17 70  1  0
 17 71  1  0
 18 72  1  0
 18 73  1  0
 19 74  1  1
 20 75  1  0
 20 76  1  0
 20 77  1  0
 23 78  1  1
 24 79  1  0
 24 80  1  0
 24 81  1  0
 25 82  1  1
 26 83  1  1
 27 84  1  1
 30 85  1  0
 30 86  1  0
 30 87  1  0
 31 88  1  0
 31 89  1  0
 32 90  1  0
 32 91  1  0
 33 92  1  1
 34 93  1  0
 34 94  1  0
 35 95  1  0
 36 96  1  0
 36 97  1  0
 37 98  1  0
 37 99  1  0
 38100  1  0
 40101  1  0
 40102  1  0
 40103  1  0
 41104  1  1
 42105  1  0
 42106  1  0
 42107  1  0
 43108  1  0
M  END
$$$$
