
     RDKit          2D

107112  0  0  0  0  0  0  0  0999 V2000
   -3.9271  -11.5135    0.0000 C   0  0  0  0  0  0  0  0  0  0  0  0
   -4.9877  -10.4529    0.0000 C   0  0  0  0  0  0  0  0  0  0  0  0
   -4.5995   -9.0040    0.0000 C   0  0  0  0  0  0  0  0  0  0  0  0
   -4.2113   -7.5551    0.0000 C   0  0  0  0  0  0  0  0  0  0  0  0
   -3.8230   -6.1062    0.0000 C   0  0  0  0  0  0  0  0  0  0  0  0
   -3.4348   -4.6573    0.0000 C   0  0  0  0  0  0  0  0  0  0  0  0
   -3.0466   -3.2084    0.0000 C   0  0  0  0  0  0  0  0  0  0  0  0
   -2.6584   -1.7595    0.0000 C   0  0  0  0  0  0  0  0  0  0  0  0
   -2.2701   -0.3107    0.0000 C   0  0  0  0  0  0  0  0  0  0  0  0
   -1.8819    1.1382    0.0000 C   0  0  0  0  0  0  0  0  0  0  0  0
   -1.4937    2.5871    0.0000 C   0  0  0  0  0  0  0  0  0  0  0  0
   -2.9895    2.4750    0.0000 C   0  0  0  0  0  0  0  0  0  0  0  0
   -4.4853    2.3629    0.0000 C   0  0  0  0  0  0  0  0  0  0  0  0
   -2.0935    3.9620    0.0000 O   0  0  0  0  0  0  0  0  0  0  0  0
   -1.3926    5.2881    0.0000 C   0  0  0  0  0  0  0  0  0  0  0  0
    0.0812    5.5670    0.0000 C   0  0  0  0  0  0  0  0  0  0  0  0
    1.4971    6.0624    0.0000 C   0  0  0  0  0  0  0  0  0  0  0  0
    1.2182    4.5886    0.0000 C   0  0  0  0  0  0  0  0  0  0  0  0
    2.7088    4.4206    0.0000 Se  0  0  0  0  0  2  0  0  0  0  0  0
    1.1621    3.0896    0.0000 C   0  0  0  0  0  0  0  0  0  0  0  0
   -0.0448    2.1989    0.0000 C   0  0  0  0  0  0  0  0  0  0  0  0
   -0.4330    0.7500    0.0000 C   0  0  0  0  0  0  0  0  0  0  0  0
    0.8660    0.0000    0.0000 O   0  0  0  0  0  0  0  0  0  0  0  0
   -0.4330   -0.7500    0.0000 C   0  0  0  0  0  0  0  0  0  0  0  0
    0.0800   -2.1595    0.0000 C   0  0  0  0  0  0  0  0  0  0  0  0
    0.5930   -3.5691    0.0000 C   0  0  0  0  0  0  0  0  0  0  0  0
    1.1061   -4.9786    0.0000 C   0  0  0  0  0  0  0  0  0  0  0  0
    1.6191   -6.3882    0.0000 O   0  0  0  0  0  0  0  0  0  0  0  0
   -6.4366  -10.8411    0.0000 C   0  0  0  0  0  0  0  0  0  0  0  0
   -7.8855  -11.2293    0.0000 C   0  0  0  0  0  0  0  0  0  0  0  0
   -9.3344  -11.6176    0.0000 C   0  0  0  0  0  0  0  0  0  0  0  0
  -10.7833  -12.0058    0.0000 C   0  0  0  0  0  0  0  0  0  0  0  0
  -10.9401  -10.5140    0.0000 C   0  0  0  0  0  0  0  0  0  0  0  0
  -11.0969   -9.0222    0.0000 N   0  0  0  0  0  0  0  0  0  0  0  0
  -12.4319  -10.6708    0.0000 C   0  0  0  0  0  0  0  0  0  0  0  0
  -13.9236  -10.8276    0.0000 N   0  0  0  0  0  0  0  0  0  0  0  0
  -12.2751  -12.1626    0.0000 C   0  0  0  0  0  0  0  0  0  0  0  0
  -12.5869  -13.6298    0.0000 C   0  0  0  0  0  0  0  0  0  0  0  0
  -14.0135  -13.1663    0.0000 C   0  0  0  0  0  0  0  0  0  0  0  0
  -11.2879  -14.3798    0.0000 C   0  0  0  0  0  0  0  0  0  0  0  0
  -10.1732  -13.3761    0.0000 C   0  0  0  0  0  0  0  0  0  0  0  0
   -9.2915  -14.5896    0.0000 C   0  0  0  0  0  0  0  0  0  0  0  0
   -8.8741  -12.6261    0.0000 Si  0  0  0  0  0  4  0  0  0  0  0  0
   -4.3153  -12.9624    0.0000 H   0  0  0  0  0  0  0  0  0  0  0  0
   -2.4782  -11.1253    0.0000 H   0  0  0  0  0  0  0  0  0  0  0  0
   -3.1506   -9.3922    0.0000 H   0  0  0  0  0  0  0  0  0  0  0  0
   -6.0484   -8.6158    0.0000 H   0  0  0  0  0  0  0  0  0  0  0  0
   -5.6602   -7.1669    0.0000 H   0  0  0  0  0  0  0  0  0  0  0  0
   -2.7624   -7.9433    0.0000 H   0  0  0  0  0  0  0  0  0  0  0  0
   -2.3742   -6.4944    0.0000 H   0  0  0  0  0  0  0  0  0  0  0  0
   -5.2719   -5.7180    0.0000 H   0  0  0  0  0  0  0  0  0  0  0  0
   -1.9859   -5.0456    0.0000 H   0  0  0  0  0  0  0  0  0  0  0  0
   -4.8837   -4.2691    0.0000 H   0  0  0  0  0  0  0  0  0  0  0  0
   -1.5977   -3.5967    0.0000 H   0  0  0  0  0  0  0  0  0  0  0  0
   -4.4955   -2.8202    0.0000 H   0  0  0  0  0  0  0  0  0  0  0  0
   -1.2676   -2.3215    0.0000 H   0  0  0  0  0  0  0  0  0  0  0  0
   -4.1072   -1.3713    0.0000 H   0  0  0  0  0  0  0  0  0  0  0  0
   -1.3138   -0.8409    0.0000 H   0  0  0  0  0  0  0  0  0  0  0  0
   -3.7190    0.0776    0.0000 H   0  0  0  0  0  0  0  0  0  0  0  0
   -2.6713    1.2492    0.0000 H   0  0  0  0  0  0  0  0  0  0  0  0
   -3.1016    3.9708    0.0000 H   0  0  0  0  0  0  0  0  0  0  0  0
   -3.0273    1.6788    0.0000 H   0  0  0  0  0  0  0  0  0  0  0  0
   -5.9811    2.2508    0.0000 H   0  0  0  0  0  0  0  0  0  0  0  0
   -4.5974    3.8587    0.0000 H   0  0  0  0  0  0  0  0  0  0  0  0
   -4.3732    0.8671    0.0000 H   0  0  0  0  0  0  0  0  0  0  0  0
   -2.8415    5.6764    0.0000 H   0  0  0  0  0  0  0  0  0  0  0  0
   -1.3365    6.7871    0.0000 H   0  0  0  0  0  0  0  0  0  0  0  0
   -0.3070    7.0159    0.0000 H   0  0  0  0  0  0  0  0  0  0  0  0
    1.2550    7.5428    0.0000 H   0  0  0  0  0  0  0  0  0  0  0  0
    2.9970    6.0437    0.0000 H   0  0  0  0  0  0  0  0  0  0  0  0
    3.4717    3.1292    0.0000 H   0  0  0  0  0  0  0  0  0  0  0  0
    2.6590    3.1868    0.0000 H   0  0  0  0  0  0  0  0  0  0  0  0
    1.9251    1.7981    0.0000 H   0  0  0  0  0  0  0  0  0  0  0  0
    1.0823    1.2091    0.0000 H   0  0  0  0  0  0  0  0  0  0  0  0
   -1.8033   -1.3602    0.0000 H   0  0  0  0  0  0  0  0  0  0  0  0
   -1.2565   -2.8406    0.0000 H   0  0  0  0  0  0  0  0  0  0  0  0
    1.4896   -1.6465    0.0000 H   0  0  0  0  0  0  0  0  0  0  0  0
    2.0026   -3.0560    0.0000 H   0  0  0  0  0  0  0  0  0  0  0  0
   -0.8165   -4.0821    0.0000 H   0  0  0  0  0  0  0  0  0  0  0  0
   -0.3035   -5.4916    0.0000 H   0  0  0  0  0  0  0  0  0  0  0  0
    2.5156   -4.4656    0.0000 H   0  0  0  0  0  0  0  0  0  0  0  0
    3.0963   -6.6486    0.0000 H   0  0  0  0  0  0  0  0  0  0  0  0
   -6.0484  -12.2900    0.0000 H   0  0  0  0  0  0  0  0  0  0  0  0
   -6.8248   -9.3922    0.0000 H   0  0  0  0  0  0  0  0  0  0  0  0
   -8.2737   -9.7804    0.0000 H   0  0  0  0  0  0  0  0  0  0  0  0
   -7.3236  -12.6201    0.0000 H   0  0  0  0  0  0  0  0  0  0  0  0
   -8.6071  -12.9295    0.0000 H   0  0  0  0  0  0  0  0  0  0  0  0
   -9.5431  -10.1322    0.0000 H   0  0  0  0  0  0  0  0  0  0  0  0
   -9.4785  -10.1765    0.0000 H   0  0  0  0  0  0  0  0  0  0  0  0
  -12.3826   -8.2496    0.0000 H   0  0  0  0  0  0  0  0  0  0  0  0
   -9.8833   -8.1406    0.0000 H   0  0  0  0  0  0  0  0  0  0  0  0
  -12.7693   -9.2093    0.0000 H   0  0  0  0  0  0  0  0  0  0  0  0
  -14.8053   -9.6141    0.0000 H   0  0  0  0  0  0  0  0  0  0  0  0
  -14.6962  -12.1133    0.0000 H   0  0  0  0  0  0  0  0  0  0  0  0
  -13.7730  -12.0841    0.0000 H   0  0  0  0  0  0  0  0  0  0  0  0
  -13.1970  -15.0001    0.0000 H   0  0  0  0  0  0  0  0  0  0  0  0
  -15.4401  -12.7028    0.0000 H   0  0  0  0  0  0  0  0  0  0  0  0
  -14.4770  -14.5929    0.0000 H   0  0  0  0  0  0  0  0  0  0  0  0
  -13.7273  -11.6938    0.0000 H   0  0  0  0  0  0  0  0  0  0  0  0
  -12.1696  -15.5933    0.0000 H   0  0  0  0  0  0  0  0  0  0  0  0
  -10.3038  -15.5119    0.0000 H   0  0  0  0  0  0  0  0  0  0  0  0
   -8.4098  -15.8032    0.0000 H   0  0  0  0  0  0  0  0  0  0  0  0
  -10.3885  -15.6127    0.0000 H   0  0  0  0  0  0  0  0  0  0  0  0
   -7.9796  -13.8625    0.0000 H   0  0  0  0  0  0  0  0  0  0  0  0
   -7.3926  -12.3916    0.0000 H   0  0  0  0  0  0  0  0  0  0  0  0
   -7.9714  -13.8240    0.0000 H   0  0  0  0  0  0  0  0  0  0  0  0
   -9.2875  -11.1842    0.0000 H   0  0  0  0  0  0  0  0  0  0  0  0
  1  2  2  3
  2  3  1  0
  3  4  1  0
  4  5  1  0
  5  6  1  0
  6  7  1  0
  7  8  1  0
  8  9  1  0
  9 10  1  0
 10 11  1  0
 11 12  1  0
 12 13  1  0
 11 14  1  0
 14 15  1  0
 15 16  1  0
 16 17  1  0
 17 18  1  0
 18 19  1  0
 18 20  1  0
 20 21  1  0
 21 22  1  0
 22 23  1  0
 23 24  1  0
 24 25  1  0
 25 26  1  0
 26 27  1  0
 27 28  1  0
  2 29  1  0
 29 30  1  0
 30 31  1  0
 31 32  1  0
 32 33  1  0
 33 34  1  0
 33 35  1  0
 35 36  1  0
 35 37  1  0
 37 38  1  0
 38 39  1  0
 38 40  1  0
 40 41  1  0
 41 42  1  0
 41 43  1  0
 22 10  1  0
 37 32  1  0
 21 11  1  0
 24 22  1  0
 41 32  1  0
 18 16  1  0
  1 44  1  0
  1 45  1  0
  3 46  1  0
  3 47  1  0
  4 48  1  0
  4 49  1  0
  5 50  1  0
  5 51  1  0
  6 52  1  0
  6 53  1  0
  7 54  1  0
  7 55  1  0
  8 56  1  0
  8 57  1  0
  9 58  1  0
  9 59  1  0
 10 60  1  0
 12 61  1  0
 12 62  1  0
 13 63  1  0
 13 64  1  0
 13 65  1  0
 15 66  1  0
 15 67  1  0
 16 68  1  0
 17 69  1  0
 17 70  1  0
 19 71  1  0
 20 72  1  0
 20 73  1  0
 21 74  1  0
 24 75  1  0
 25 76  1  0
 25 77  1  0
 26 78  1  0
 26 79  1  0
 27 80  1  0
 27 81  1  0
 28 82  1  0
 29 83  1  0
 29 84  1  0
 30 85  1  0
 30 86  1  0
 31 87  1  0
 31 88  1  0
 33 89  1  0
 34 90  1  0
 34 91  1  0
 35 92  1  0
 36 93  1  0
 36 94  1  0
 37 95  1  0
 38 96  1  0
 39 97  1  0
 39 98  1  0
 39 99  1  0
 40100  1  0
 40101  1  0
 42102  1  0
 42103  1  0
 42104  1  0
 43105  1  0
 43106  1  0
 43107  1  0
M  END
$$$$
