
     RDKit          2D

 31 33  0  0  0  0  0  0  0  0999 V2000
    0.3170    2.0490    0.0000 C   0  0  0  0  0  0  0  0  0  0  0  0
   -0.4330    0.7500    0.0000 C   0  0  0  0  0  0  0  0  0  0  0  0
    0.8660    0.0000    0.0000 C   0  0  0  0  0  0  0  0  0  0  0  0
   -0.4330   -0.7500    0.0000 C   0  0  0  0  0  0  0  0  0  0  0  0
   -1.7321   -1.5000    0.0000 C   0  0  0  0  0  0  0  0  0  0  0  0
   -2.6962   -2.6491    0.0000 C   0  0  0  0  0  0  0  0  0  0  0  0
   -3.2093   -4.0586    0.0000 C   0  0  0  0  0  0  0  0  0  0  0  0
   -1.7321   -3.7981    0.0000 C   0  0  0  0  0  0  0  0  0  0  0  0
   -3.0311   -0.7500    0.0000 C   0  0  0  0  0  0  0  0  0  0  0  0
   -3.0311    0.7500    0.0000 C   0  0  0  0  0  0  0  0  0  0  0  0
   -1.7321    1.5000    0.0000 C   0  0  0  0  0  0  0  0  0  0  0  0
   -0.7679    2.6491    0.0000 N   0  0  0  0  0  0  0  0  0  0  0  0
    1.0670    3.3481    0.0000 H   0  0  0  0  0  0  0  0  0  0  0  0
    1.6978    1.4630    0.0000 H   0  0  0  0  0  0  0  0  0  0  0  0
   -0.2564    2.6028    0.0000 H   0  0  0  0  0  0  0  0  0  0  0  0
    1.9631    1.0230    0.0000 H   0  0  0  0  0  0  0  0  0  0  0  0
    1.8302   -1.1491    0.0000 H   0  0  0  0  0  0  0  0  0  0  0  0
    0.3170   -2.0490    0.0000 H   0  0  0  0  0  0  0  0  0  0  0  0
   -0.6350   -2.5230    0.0000 H   0  0  0  0  0  0  0  0  0  0  0  0
   -4.0770   -2.0630    0.0000 H   0  0  0  0  0  0  0  0  0  0  0  0
   -4.6865   -3.7981    0.0000 H   0  0  0  0  0  0  0  0  0  0  0  0
   -3.2093   -5.5586    0.0000 H   0  0  0  0  0  0  0  0  0  0  0  0
   -1.2190   -5.2077    0.0000 H   0  0  0  0  0  0  0  0  0  0  0  0
   -0.3513   -3.2121    0.0000 H   0  0  0  0  0  0  0  0  0  0  0  0
   -4.5083   -0.4895    0.0000 H   0  0  0  0  0  0  0  0  0  0  0  0
   -3.7121   -2.0865    0.0000 H   0  0  0  0  0  0  0  0  0  0  0  0
   -3.5441    2.1595    0.0000 H   0  0  0  0  0  0  0  0  0  0  0  0
   -4.5083    0.4895    0.0000 H   0  0  0  0  0  0  0  0  0  0  0  0
   -2.6962    2.6491    0.0000 H   0  0  0  0  0  0  0  0  0  0  0  0
   -1.2809    4.0586    0.0000 H   0  0  0  0  0  0  0  0  0  0  0  0
    0.7285    2.7538    0.0000 H   0  0  0  0  0  0  0  0  0  0  0  0
  2  1  1  1
  2  3  1  0
  3  4  1  0
  4  5  1  0
  5  6  1  0
  6  7  1  0
  7  8  1  0
  5  9  1  0
  9 10  1  0
 10 11  1  0
 11 12  1  0
  4  2  1  0
  8  6  1  0
 11  2  1  0
  1 13  1  0
  1 14  1  0
  1 15  1  0
  3 16  1  0
  3 17  1  0
  4 18  1  1
  5 19  1  6
  6 20  1  0
  7 21  1  0
  7 22  1  0
  8 23  1  0
  8 24  1  0
  9 25  1  0
  9 26  1  0
 10 27  1  0
 10 28  1  0
 11 29  1  6
 12 30  1  0
 12 31  1  0
M  END
$$$$
