
     RDKit          2D

 23 23  0  0  0  0  0  0  0  0999 V2000
    1.8302    1.1491    0.0000 C   0  0  0  0  0  0  0  0  0  0  0  0
    0.8660    0.0000    0.0000 C   0  0  0  0  0  0  0  0  0  0  0  0
    1.8302   -1.1491    0.0000 F   0  0  0  0  0  0  0  0  0  0  0  0
   -0.4330    0.7500    0.0000 C   0  0  0  0  0  0  0  0  0  0  0  0
   -0.4330   -0.7500    0.0000 C   0  0  0  0  0  0  0  0  0  0  0  0
    0.0800   -2.1595    0.0000 O   0  0  0  0  0  0  0  0  0  0  0  0
   -0.8842   -3.3086    0.0000 C   0  0  0  0  0  0  0  0  0  0  0  0
   -2.0332   -2.3444    0.0000 O   0  0  0  0  0  0  0  0  0  0  0  0
   -1.8483   -4.4577    0.0000 C   0  0  0  0  0  0  0  0  0  0  0  0
   -2.8125   -5.6067    0.0000 C   0  0  0  0  0  0  0  0  0  0  0  0
   -3.7767   -6.7558    0.0000 F   0  0  0  0  0  0  0  0  0  0  0  0
    2.7944    2.2981    0.0000 H   0  0  0  0  0  0  0  0  0  0  0  0
    0.9095    2.1364    0.0000 H   0  0  0  0  0  0  0  0  0  0  0  0
    2.9793    0.1849    0.0000 H   0  0  0  0  0  0  0  0  0  0  0  0
   -1.9102    1.0105    0.0000 H   0  0  0  0  0  0  0  0  0  0  0  0
   -0.1294    2.0654    0.0000 H   0  0  0  0  0  0  0  0  0  0  0  0
   -1.9102   -1.0105    0.0000 H   0  0  0  0  0  0  0  0  0  0  0  0
    0.2649   -4.2728    0.0000 H   0  0  0  0  0  0  0  0  0  0  0  0
   -3.4948   -2.6818    0.0000 H   0  0  0  0  0  0  0  0  0  0  0  0
   -3.1064   -3.6407    0.0000 H   0  0  0  0  0  0  0  0  0  0  0  0
   -0.6993   -5.4219    0.0000 H   0  0  0  0  0  0  0  0  0  0  0  0
   -1.6635   -6.5709    0.0000 H   0  0  0  0  0  0  0  0  0  0  0  0
   -3.9616   -4.6426    0.0000 H   0  0  0  0  0  0  0  0  0  0  0  0
  1  2  1  0
  2  3  1  0
  2  4  1  0
  4  5  1  0
  5  6  1  0
  6  7  1  0
  7  8  1  0
  7  9  1  0
  9 10  1  0
 10 11  1  0
  5  2  1  0
  1 12  1  0
  1 13  1  0
  1 14  1  0
  4 15  1  0
  4 16  1  0
  5 17  1  0
  7 18  1  0
  8 19  1  0
  9 20  1  0
  9 21  1  0
 10 22  1  0
 10 23  1  0
M  END
$$$$
