
     RDKit          2D

 25 28  0  0  0  0  0  0  0  0999 V2000
    1.4616   -5.2407    0.0000 N   0  0  0  0  0  0  0  0  0  0  0  0
    0.8515   -3.8704    0.0000 C   0  0  0  0  0  0  0  0  0  0  0  0
    2.0951   -3.0316    0.0000 C   0  0  0  0  0  0  0  0  0  0  0  0
    0.7469   -2.3740    0.0000 C   0  0  0  0  0  0  0  0  0  0  0  0
   -0.7449   -2.2172    0.0000 C   0  0  0  0  0  0  0  0  0  0  0  0
   -2.2367   -2.3740    0.0000 N   0  0  0  0  0  0  0  0  0  0  0  0
   -2.8468   -1.0037    0.0000 C   0  0  0  0  0  0  0  0  0  0  0  0
   -4.1458   -1.7537    0.0000 O   0  0  0  0  0  0  0  0  0  0  0  0
   -1.7321    0.0000    0.0000 N   0  0  0  0  0  0  0  0  0  0  0  0
   -0.4330    0.7500    0.0000 C   0  0  0  0  0  0  0  0  0  0  0  0
    0.8660    0.0000    0.0000 C   0  0  0  0  0  0  0  0  0  0  0  0
   -0.4330   -0.7500    0.0000 C   0  0  0  0  0  0  0  0  0  0  0  0
    0.5800   -6.4542    0.0000 H   0  0  0  0  0  0  0  0  0  0  0  0
    2.9534   -5.3975    0.0000 H   0  0  0  0  0  0  0  0  0  0  0  0
   -0.4088   -4.3542    0.0000 H   0  0  0  0  0  0  0  0  0  0  0  0
    2.9768   -1.8180    0.0000 H   0  0  0  0  0  0  0  0  0  0  0  0
    3.1371   -4.1106    0.0000 H   0  0  0  0  0  0  0  0  0  0  0  0
    1.1315   -1.4681    0.0000 H   0  0  0  0  0  0  0  0  0  0  0  0
   -0.9094   -3.5572    0.0000 H   0  0  0  0  0  0  0  0  0  0  0  0
   -2.9867   -3.6731    0.0000 H   0  0  0  0  0  0  0  0  0  0  0  0
   -3.7284    0.2098    0.0000 H   0  0  0  0  0  0  0  0  0  0  0  0
   -5.4448   -1.0037    0.0000 H   0  0  0  0  0  0  0  0  0  0  0  0
   -0.4330    2.2500    0.0000 H   0  0  0  0  0  0  0  0  0  0  0  0
    1.8302    1.1491    0.0000 H   0  0  0  0  0  0  0  0  0  0  0  0
    1.5858   -0.6712    0.0000 H   0  0  0  0  0  0  0  0  0  0  0  0
  1  2  1  0
  2  3  1  0
  3  4  1  0
  4  5  1  0
  5  6  1  0
  6  7  1  0
  7  8  1  0
  7  9  1  0
  9 10  1  0
 10 11  1  0
 11 12  1  0
  4  2  1  0
 12  5  1  0
 12  9  1  0
 12 10  1  0
  1 13  1  0
  1 14  1  0
  2 15  1  0
  3 16  1  0
  3 17  1  0
  4 18  1  0
  5 19  1  0
  6 20  1  0
  7 21  1  0
  8 22  1  0
 10 23  1  0
 11 24  1  0
 11 25  1  0
M  END
$$$$
