
     RDKit          2D

 24 26  0  0  0  0  0  0  0  0999 V2000
   -1.8829   -4.7930    0.0000 C   0  0  0  0  0  0  0  0  0  0  0  0
   -0.5348   -5.4505    0.0000 O   0  0  0  0  0  0  0  0  0  0  0  0
   -0.6394   -3.9542    0.0000 C   0  0  0  0  0  0  0  0  0  0  0  0
   -1.2495   -2.5838    0.0000 C   0  0  0  0  0  0  0  0  0  0  0  0
   -1.8596   -1.2135    0.0000 C   0  0  0  0  0  0  0  0  0  0  0  0
   -2.7413    0.0000    0.0000 C   0  0  0  0  0  0  0  0  0  0  0  0
   -1.8596    1.2135    0.0000 C   0  0  0  0  0  0  0  0  0  0  0  0
   -0.4330    0.7500    0.0000 C   0  0  0  0  0  0  0  0  0  0  0  0
    0.8660    0.0000    0.0000 C   0  0  0  0  0  0  0  0  0  0  0  0
   -0.4330   -0.7500    0.0000 C   0  0  0  0  0  0  0  0  0  0  0  0
   -2.7646   -6.0065    0.0000 H   0  0  0  0  0  0  0  0  0  0  0  0
   -2.9321   -3.9434    0.0000 H   0  0  0  0  0  0  0  0  0  0  0  0
    0.8161   -3.5913    0.0000 H   0  0  0  0  0  0  0  0  0  0  0  0
   -0.4025   -2.3249    0.0000 H   0  0  0  0  0  0  0  0  0  0  0  0
   -2.5405   -2.9785    0.0000 H   0  0  0  0  0  0  0  0  0  0  0  0
   -3.1586   -1.9635    0.0000 H   0  0  0  0  0  0  0  0  0  0  0  0
   -3.8560   -1.0037    0.0000 H   0  0  0  0  0  0  0  0  0  0  0  0
   -3.8560    1.0037    0.0000 H   0  0  0  0  0  0  0  0  0  0  0  0
   -3.1586    1.9635    0.0000 H   0  0  0  0  0  0  0  0  0  0  0  0
   -1.2495    2.5838    0.0000 H   0  0  0  0  0  0  0  0  0  0  0  0
    0.1771    2.1203    0.0000 H   0  0  0  0  0  0  0  0  0  0  0  0
    1.8302    1.1491    0.0000 H   0  0  0  0  0  0  0  0  0  0  0  0
    1.8302   -1.1491    0.0000 H   0  0  0  0  0  0  0  0  0  0  0  0
    0.0232   -1.5092    0.0000 H   0  0  0  0  0  0  0  0  0  0  0  0
  1  2  1  0
  2  3  1  0
  3  4  1  0
  4  5  1  0
  5  6  1  0
  6  7  1  0
  7  8  1  0
  8  9  1  0
  9 10  1  0
  3  1  1  0
 10  5  1  0
 10  8  1  0
  1 11  1  0
  1 12  1  0
  3 13  1  1
  4 14  1  0
  4 15  1  0
  5 16  1  6
  6 17  1  0
  6 18  1  0
  7 19  1  0
  7 20  1  0
  8 21  1  1
  9 22  1  0
  9 23  1  0
 10 24  1  1
M  END
$$$$
