
     RDKit          2D

 61 68  0  0  0  0  0  0  0  0999 V2000
   -1.9248   -0.5932    0.0000 N   0  0  0  0  0  0  0  0  0  0  0  0
   -1.9248    0.9068    0.0000 C   0  0  0  0  0  0  0  0  0  0  0  0
   -0.4330    0.7500    0.0000 C   0  0  0  0  0  0  0  0  0  0  0  0
    0.1771    2.1203    0.0000 C   0  0  0  0  0  0  0  0  0  0  0  0
   -0.9376    3.1240    0.0000 C   0  0  0  0  0  0  0  0  0  0  0  0
   -2.2367    3.8740    0.0000 C   0  0  0  0  0  0  0  0  0  0  0  0
   -3.5357    4.6240    0.0000 C   0  0  0  0  0  0  0  0  0  0  0  0
   -3.0227    6.0336    0.0000 C   0  0  0  0  0  0  0  0  0  0  0  0
   -2.5096    7.4431    0.0000 C   0  0  0  0  0  0  0  0  0  0  0  0
   -1.9966    8.8526    0.0000 C   0  0  0  0  0  0  0  0  0  0  0  0
   -3.4061    9.3657    0.0000 C   0  0  0  0  0  0  0  0  0  0  0  0
   -2.8931   10.7752    0.0000 C   0  0  0  0  0  0  0  0  0  0  0  0
   -1.4836   10.2622    0.0000 C   0  0  0  0  0  0  0  0  0  0  0  0
   -3.5357    3.1240    0.0000 C   0  0  0  0  0  0  0  0  0  0  0  0
   -2.2367    2.3740    0.0000 C   0  0  0  0  0  0  0  0  0  0  0  0
    0.8660    0.0000    0.0000 O   0  0  0  0  0  0  0  0  0  0  0  0
   -0.4330   -0.7500    0.0000 C   0  0  0  0  0  0  0  0  0  0  0  0
    0.0800   -2.1595    0.0000 C   0  0  0  0  0  0  0  0  0  0  0  0
    0.5930   -3.5691    0.0000 C   0  0  0  0  0  0  0  0  0  0  0  0
    1.1061   -4.9786    0.0000 C   0  0  0  0  0  0  0  0  0  0  0  0
    1.1061   -6.4786    0.0000 C   0  0  0  0  0  0  0  0  0  0  0  0
   -0.1930   -5.7286    0.0000 C   0  0  0  0  0  0  0  0  0  0  0  0
   -1.1571   -6.8777    0.0000 C   0  0  0  0  0  0  0  0  0  0  0  0
   -2.1213   -8.0268    0.0000 C   0  0  0  0  0  0  0  0  0  0  0  0
   -2.6344   -9.4363    0.0000 C   0  0  0  0  0  0  0  0  0  0  0  0
   -1.1571   -9.1758    0.0000 C   0  0  0  0  0  0  0  0  0  0  0  0
   -3.2238   -1.3432    0.0000 H   0  0  0  0  0  0  0  0  0  0  0  0
   -0.8458   -1.6353    0.0000 H   0  0  0  0  0  0  0  0  0  0  0  0
   -3.4166    0.7500    0.0000 H   0  0  0  0  0  0  0  0  0  0  0  0
    1.0588    3.3338    0.0000 H   0  0  0  0  0  0  0  0  0  0  0  0
    1.4761    1.3703    0.0000 H   0  0  0  0  0  0  0  0  0  0  0  0
   -0.0559    4.3375    0.0000 H   0  0  0  0  0  0  0  0  0  0  0  0
   -5.0129    4.8845    0.0000 H   0  0  0  0  0  0  0  0  0  0  0  0
   -4.4322    6.5466    0.0000 H   0  0  0  0  0  0  0  0  0  0  0  0
   -1.6131    5.5205    0.0000 H   0  0  0  0  0  0  0  0  0  0  0  0
   -1.1001    6.9301    0.0000 H   0  0  0  0  0  0  0  0  0  0  0  0
   -3.3727    7.6423    0.0000 H   0  0  0  0  0  0  0  0  0  0  0  0
   -0.5871    8.3396    0.0000 H   0  0  0  0  0  0  0  0  0  0  0  0
   -4.8157    9.8787    0.0000 H   0  0  0  0  0  0  0  0  0  0  0  0
   -3.8083    8.5765    0.0000 H   0  0  0  0  0  0  0  0  0  0  0  0
   -2.3801   12.1847    0.0000 H   0  0  0  0  0  0  0  0  0  0  0  0
   -4.3027   11.2882    0.0000 H   0  0  0  0  0  0  0  0  0  0  0  0
   -0.0740    9.7491    0.0000 H   0  0  0  0  0  0  0  0  0  0  0  0
   -0.9706   11.6717    0.0000 H   0  0  0  0  0  0  0  0  0  0  0  0
   -4.8347    2.3740    0.0000 H   0  0  0  0  0  0  0  0  0  0  0  0
   -1.1612   -1.0743    0.0000 H   0  0  0  0  0  0  0  0  0  0  0  0
   -1.3295   -2.6726    0.0000 H   0  0  0  0  0  0  0  0  0  0  0  0
    1.4896   -1.6465    0.0000 H   0  0  0  0  0  0  0  0  0  0  0  0
    2.0026   -3.0560    0.0000 H   0  0  0  0  0  0  0  0  0  0  0  0
   -0.8685   -3.9065    0.0000 H   0  0  0  0  0  0  0  0  0  0  0  0
    2.5833   -4.7181    0.0000 H   0  0  0  0  0  0  0  0  0  0  0  0
    2.5833   -6.7391    0.0000 H   0  0  0  0  0  0  0  0  0  0  0  0
    0.9494   -7.9704    0.0000 H   0  0  0  0  0  0  0  0  0  0  0  0
   -1.2900   -4.7056    0.0000 H   0  0  0  0  0  0  0  0  0  0  0  0
   -2.3062   -5.9135    0.0000 H   0  0  0  0  0  0  0  0  0  0  0  0
   -0.0081   -7.8419    0.0000 H   0  0  0  0  0  0  0  0  0  0  0  0
   -3.4204   -7.2768    0.0000 H   0  0  0  0  0  0  0  0  0  0  0  0
   -4.1116   -9.1758    0.0000 H   0  0  0  0  0  0  0  0  0  0  0  0
   -2.6344  -10.9363    0.0000 H   0  0  0  0  0  0  0  0  0  0  0  0
   -0.6441  -10.5854    0.0000 H   0  0  0  0  0  0  0  0  0  0  0  0
    0.2848   -8.7624    0.0000 H   0  0  0  0  0  0  0  0  0  0  0  0
  1  2  1  0
  2  3  1  0
  3  4  1  0
  4  5  1  0
  5  6  1  0
  6  7  1  0
  7  8  1  0
  8  9  1  0
  9 10  1  0
 10 11  1  0
 11 12  1  0
 12 13  1  0
  7 14  1  0
 14 15  1  0
  3 16  1  0
 16 17  1  0
 17 18  1  0
 18 19  1  0
 19 20  1  0
 20 21  1  0
 21 22  1  0
 22 23  1  0
 23 24  1  0
 24 25  1  0
 25 26  1  0
 15  2  1  0
 22 20  1  0
 26 24  1  0
 17  3  1  0
 15  5  1  0
 14  6  1  0
 15  6  1  0
 13 10  1  0
  1 27  1  0
  1 28  1  0
  2 29  1  0
  4 30  1  0
  4 31  1  0
  5 32  1  0
  7 33  1  0
  8 34  1  0
  8 35  1  0
  9 36  1  0
  9 37  1  0
 10 38  1  0
 11 39  1  0
 11 40  1  0
 12 41  1  0
 12 42  1  0
 13 43  1  0
 13 44  1  0
 14 45  1  0
 17 46  1  0
 18 47  1  0
 18 48  1  0
 19 49  1  0
 19 50  1  0
 20 51  1  0
 21 52  1  0
 21 53  1  0
 22 54  1  0
 23 55  1  0
 23 56  1  0
 24 57  1  0
 25 58  1  0
 25 59  1  0
 26 60  1  0
 26 61  1  0
M  END
$$$$
