
     RDKit          2D

 95104  0  0  0  0  0  0  0  0999 V2000
  -17.3908    9.0093    0.0000 C   0  0  0  0  0  0  0  0  0  0  0  0
  -15.9549    8.5753    0.0000 C   0  0  0  0  0  0  0  0  0  0  0  0
  -15.6129    7.1149    0.0000 C   0  0  0  0  0  0  0  0  0  0  0  0
  -14.1152    7.1981    0.0000 C   0  0  0  0  0  0  0  0  0  0  0  0
  -13.4384    8.5368    0.0000 C   0  0  0  0  0  0  0  0  0  0  0  0
  -13.2942    5.9427    0.0000 C   0  0  0  0  0  0  0  0  0  0  0  0
  -12.4733    4.6873    0.0000 C   0  0  0  0  0  0  0  0  0  0  0  0
  -11.0944    5.2778    0.0000 C   0  0  0  0  0  0  0  0  0  0  0  0
   -9.8936    4.3789    0.0000 C   0  0  0  0  0  0  0  0  0  0  0  0
  -10.9163    6.7672    0.0000 C   0  0  0  0  0  0  0  0  0  0  0  0
  -11.0518    8.2610    0.0000 C   0  0  0  0  0  0  0  0  0  0  0  0
   -9.6729    8.8515    0.0000 C   0  0  0  0  0  0  0  0  0  0  0  0
   -8.6852    7.7226    0.0000 O   0  0  0  0  0  0  0  0  0  0  0  0
   -9.4537    6.4344    0.0000 C   0  0  0  0  0  0  0  0  0  0  0  0
   -8.8632    5.0555    0.0000 O   0  0  0  0  0  0  0  0  0  0  0  0
   -7.3738    4.8774    0.0000 O   0  0  0  0  0  0  0  0  0  0  0  0
   -6.7834    3.4985    0.0000 N   0  0  0  0  0  0  0  0  0  0  0  0
   -5.2940    3.3204    0.0000 C   0  0  0  0  0  0  0  0  0  0  0  0
   -5.5074    4.8052    0.0000 C   0  0  0  0  0  0  0  0  0  0  0  0
   -6.4347    5.9843    0.0000 C   0  0  0  0  0  0  0  0  0  0  0  0
   -7.3619    7.1633    0.0000 O   0  0  0  0  0  0  0  0  0  0  0  0
   -4.6085    6.0060    0.0000 C   0  0  0  0  0  0  0  0  0  0  0  0
   -4.4304    7.4954    0.0000 C   0  0  0  0  0  0  0  0  0  0  0  0
   -4.2524    8.9848    0.0000 C   0  0  0  0  0  0  0  0  0  0  0  0
   -4.0743   10.4742    0.0000 O   0  0  0  0  0  0  0  0  0  0  0  0
   -3.1238    6.2195    0.0000 Se  0  0  0  0  0  2  0  0  0  0  0  0
   -1.9230    5.3205    0.0000 C   0  0  0  0  0  0  0  0  0  0  0  0
   -1.7095    3.8358    0.0000 C   0  0  0  0  0  0  0  0  0  0  0  0
   -2.6084    2.6350    0.0000 C   0  0  0  0  0  0  0  0  0  0  0  0
   -1.2440    2.0119    0.0000 C   0  0  0  0  0  0  0  0  0  0  0  0
   -0.4330    0.7500    0.0000 C   0  0  0  0  0  0  0  0  0  0  0  0
    0.8660    0.0000    0.0000 O   0  0  0  0  0  0  0  0  0  0  0  0
   -0.4330   -0.7500    0.0000 C   0  0  0  0  0  0  0  0  0  0  0  0
   -1.2440   -2.0119    0.0000 C   0  0  0  0  0  0  0  0  0  0  0  0
   -2.6084   -2.6350    0.0000 C   0  0  0  0  0  0  0  0  0  0  0  0
   -4.0932   -2.4215    0.0000 C   0  0  0  0  0  0  0  0  0  0  0  0
   -5.2268   -1.4392    0.0000 C   0  0  0  0  0  0  0  0  0  0  0  0
   -5.6494    0.0000    0.0000 C   0  0  0  0  0  0  0  0  0  0  0  0
   -5.2268    1.4392    0.0000 C   0  0  0  0  0  0  0  0  0  0  0  0
   -5.0523    2.3831    0.0000 C   0  0  0  0  0  0  0  0  0  0  0  0
   -4.0932    2.4215    0.0000 C   0  0  0  0  0  0  0  0  0  0  0  0
   -9.5892    7.9283    0.0000 C   0  0  0  0  0  0  0  0  0  0  0  0
  -13.9710    4.6040    0.0000 C   0  0  0  0  0  0  0  0  0  0  0  0
  -14.7919    5.8595    0.0000 C   0  0  0  0  0  0  0  0  0  0  0  0
  -17.7328   10.4698    0.0000 H   0  0  0  0  0  0  0  0  0  0  0  0
  -18.4846    7.9829    0.0000 H   0  0  0  0  0  0  0  0  0  0  0  0
  -15.2547    9.4153    0.0000 H   0  0  0  0  0  0  0  0  0  0  0  0
  -16.9918    6.5244    0.0000 H   0  0  0  0  0  0  0  0  0  0  0  0
  -12.7617    9.8754    0.0000 H   0  0  0  0  0  0  0  0  0  0  0  0
  -14.3469    9.1454    0.0000 H   0  0  0  0  0  0  0  0  0  0  0  0
  -12.0998    7.8600    0.0000 H   0  0  0  0  0  0  0  0  0  0  0  0
  -12.1312    3.2268    0.0000 H   0  0  0  0  0  0  0  0  0  0  0  0
  -10.0717    2.8895    0.0000 H   0  0  0  0  0  0  0  0  0  0  0  0
   -9.1280    4.6010    0.0000 H   0  0  0  0  0  0  0  0  0  0  0  0
  -12.4162    6.7886    0.0000 H   0  0  0  0  0  0  0  0  0  0  0  0
  -12.3400    9.0295    0.0000 H   0  0  0  0  0  0  0  0  0  0  0  0
  -10.4043   10.1611    0.0000 H   0  0  0  0  0  0  0  0  0  0  0  0
   -8.4469    9.7158    0.0000 H   0  0  0  0  0  0  0  0  0  0  0  0
   -7.8219    2.4162    0.0000 H   0  0  0  0  0  0  0  0  0  0  0  0
   -6.1719    2.1042    0.0000 H   0  0  0  0  0  0  0  0  0  0  0  0
   -7.0021    4.9313    0.0000 H   0  0  0  0  0  0  0  0  0  0  0  0
   -7.8678    5.5413    0.0000 H   0  0  0  0  0  0  0  0  0  0  0  0
   -5.3774    7.0483    0.0000 H   0  0  0  0  0  0  0  0  0  0  0  0
   -6.8044    8.5559    0.0000 H   0  0  0  0  0  0  0  0  0  0  0  0
   -5.7087    7.0256    0.0000 H   0  0  0  0  0  0  0  0  0  0  0  0
   -5.9198    7.6735    0.0000 H   0  0  0  0  0  0  0  0  0  0  0  0
   -2.9411    7.3173    0.0000 H   0  0  0  0  0  0  0  0  0  0  0  0
   -2.7630    8.8067    0.0000 H   0  0  0  0  0  0  0  0  0  0  0  0
   -5.7418    9.1629    0.0000 H   0  0  0  0  0  0  0  0  0  0  0  0
   -2.6954   11.0646    0.0000 H   0  0  0  0  0  0  0  0  0  0  0  0
   -0.4230    5.3253    0.0000 H   0  0  0  0  0  0  0  0  0  0  0  0
   -1.3655    6.7131    0.0000 H   0  0  0  0  0  0  0  0  0  0  0  0
   -0.3372    3.2302    0.0000 H   0  0  0  0  0  0  0  0  0  0  0  0
   -0.2689    4.2538    0.0000 H   0  0  0  0  0  0  0  0  0  0  0  0
   -1.1550    3.0060    0.0000 H   0  0  0  0  0  0  0  0  0  0  0  0
   -0.4169    3.2633    0.0000 H   0  0  0  0  0  0  0  0  0  0  0  0
    0.1598    2.5406    0.0000 H   0  0  0  0  0  0  0  0  0  0  0  0
    0.7267    1.7013    0.0000 H   0  0  0  0  0  0  0  0  0  0  0  0
    0.7267   -1.7013    0.0000 H   0  0  0  0  0  0  0  0  0  0  0  0
    0.1598   -2.5406    0.0000 H   0  0  0  0  0  0  0  0  0  0  0  0
   -0.9204   -3.4766    0.0000 H   0  0  0  0  0  0  0  0  0  0  0  0
   -1.7134   -3.8387    0.0000 H   0  0  0  0  0  0  0  0  0  0  0  0
   -3.1281   -4.0421    0.0000 H   0  0  0  0  0  0  0  0  0  0  0  0
   -3.9909   -3.9180    0.0000 H   0  0  0  0  0  0  0  0  0  0  0  0
   -5.2911   -3.3243    0.0000 H   0  0  0  0  0  0  0  0  0  0  0  0
   -5.9499   -2.7535    0.0000 H   0  0  0  0  0  0  0  0  0  0  0  0
   -6.7226   -1.5510    0.0000 H   0  0  0  0  0  0  0  0  0  0  0  0
   -6.9682   -0.7147    0.0000 H   0  0  0  0  0  0  0  0  0  0  0  0
   -6.9682    0.7147    0.0000 H   0  0  0  0  0  0  0  0  0  0  0  0
   -6.7052    1.6927    0.0000 H   0  0  0  0  0  0  0  0  0  0  0  0
   -6.9023    2.3523    0.0000 H   0  0  0  0  0  0  0  0  0  0  0  0
   -5.6391    4.4066    0.0000 H   0  0  0  0  0  0  0  0  0  0  0  0
   -8.1287    8.2704    0.0000 H   0  0  0  0  0  0  0  0  0  0  0  0
   -9.0560    9.3303    0.0000 H   0  0  0  0  0  0  0  0  0  0  0  0
  -14.6477    3.2654    0.0000 H   0  0  0  0  0  0  0  0  0  0  0  0
  1  2  2  3
  2  3  1  0
  3  4  1  0
  4  5  1  0
  4  6  1  0
  6  7  1  0
  7  8  1  0
  8  9  2  3
  8 10  1  0
 10 11  1  0
 11 12  1  0
 12 13  1  0
 13 14  1  0
 14 15  1  0
 15 16  1  0
 16 17  1  0
 17 18  1  0
 18 19  1  0
 19 20  1  0
 20 21  1  0
 19 22  1  0
 22 23  1  0
 23 24  1  0
 24 25  1  0
 22 26  1  0
 26 27  1  0
 27 28  1  0
 28 29  1  0
 29 30  1  0
 30 31  1  0
 31 32  1  0
 32 33  1  0
 33 34  1  0
 34 35  1  0
 35 36  1  0
 36 37  1  0
 37 38  1  0
 38 39  1  0
 39 40  1  0
 40 41  1  0
 14 42  1  0
  7 43  1  0
 43 44  1  0
 44  3  1  0
 44  4  1  0
 43  6  1  0
 44  6  1  0
 14 10  1  0
 41 18  1  0
 42 11  1  0
 41 29  1  0
 33 31  1  0
 41 39  1  0
  1 45  1  0
  1 46  1  0
  2 47  1  0
  3 48  1  0
  5 49  1  0
  5 50  1  0
  5 51  1  0
  7 52  1  0
  9 53  1  0
  9 54  1  0
 10 55  1  0
 11 56  1  0
 12 57  1  0
 12 58  1  0
 17 59  1  0
 18 60  1  0
 19 61  1  0
 20 62  1  0
 20 63  1  0
 21 64  1  0
 22 65  1  0
 23 66  1  0
 23 67  1  0
 24 68  1  0
 24 69  1  0
 25 70  1  0
 27 71  1  0
 27 72  1  0
 28 73  1  0
 28 74  1  0
 29 75  1  0
 30 76  1  0
 30 77  1  0
 31 78  1  0
 33 79  1  0
 34 80  1  0
 34 81  1  0
 35 82  1  0
 35 83  1  0
 36 84  1  0
 36 85  1  0
 37 86  1  0
 37 87  1  0
 38 88  1  0
 38 89  1  0
 39 90  1  0
 40 91  1  0
 40 92  1  0
 42 93  1  0
 42 94  1  0
 43 95  1  0
M  END
$$$$
