
     RDKit          2D

 52 54  0  0  0  0  0  0  0  0999 V2000
    3.1820    2.1213    0.0000 C   0  0  0  0  0  0  0  0  0  0  0  0
    2.1213    1.0607    0.0000 C   0  0  0  0  0  0  0  0  0  0  0  0
    1.0607    0.0000    0.0000 C   0  0  0  0  0  0  0  0  0  0  0  0
   -0.0000   -1.0607    0.0000 C   0  0  0  0  0  0  0  0  0  0  0  0
    1.0607   -2.1213    0.0000 N   0  0  0  0  0  0  0  0  0  0  0  0
   -1.0607    0.0000    0.0000 C   0  0  0  0  0  0  0  0  0  0  0  0
   -2.1213   -1.0607    0.0000 C   0  0  0  0  0  0  0  0  0  0  0  0
    0.0000    1.0607    0.0000 C   0  0  0  0  0  0  0  0  0  0  0  0
   -1.0607    2.1213    0.0000 C   0  0  0  0  0  0  0  0  0  0  0  0
   -2.1213    3.1820    0.0000 C   0  0  0  0  0  0  0  0  0  0  0  0
   -3.1820    4.2426    0.0000 C   0  0  0  0  0  0  0  0  0  0  0  0
   -2.3216    5.4714    0.0000 C   0  0  0  0  0  0  0  0  0  0  0  0
   -4.5414    4.8766    0.0000 C   0  0  0  0  0  0  0  0  0  0  0  0
   -4.4107    3.3823    0.0000 C   0  0  0  0  0  0  0  0  0  0  0  0
   -5.8596    2.9940    0.0000 C   0  0  0  0  0  0  0  0  0  0  0  0
   -7.3085    2.6058    0.0000 C   0  0  0  0  0  0  0  0  0  0  0  0
   -8.7574    2.2176    0.0000 C   0  0  0  0  0  0  0  0  0  0  0  0
  -10.2517    2.3483    0.0000 C   0  0  0  0  0  0  0  0  0  0  0  0
   -9.3913    3.5771    0.0000 C   0  0  0  0  0  0  0  0  0  0  0  0
  -10.4520    4.6377    0.0000 Cl  0  0  0  0  0  0  0  0  0  0  0  0
    4.2426    3.1820    0.0000 H   0  0  0  0  0  0  0  0  0  0  0  0
    4.2426    1.0607    0.0000 H   0  0  0  0  0  0  0  0  0  0  0  0
    2.1213    3.1820    0.0000 H   0  0  0  0  0  0  0  0  0  0  0  0
    1.5760    1.7586    0.0000 H   0  0  0  0  0  0  0  0  0  0  0  0
    3.1820    0.0000    0.0000 H   0  0  0  0  0  0  0  0  0  0  0  0
    2.2427   -0.9235    0.0000 H   0  0  0  0  0  0  0  0  0  0  0  0
   -0.5453   -1.7586    0.0000 H   0  0  0  0  0  0  0  0  0  0  0  0
    0.6724   -3.5702    0.0000 H   0  0  0  0  0  0  0  0  0  0  0  0
    2.5461   -1.9126    0.0000 H   0  0  0  0  0  0  0  0  0  0  0  0
   -1.7586    0.5453    0.0000 H   0  0  0  0  0  0  0  0  0  0  0  0
   -3.1820   -2.1213    0.0000 H   0  0  0  0  0  0  0  0  0  0  0  0
   -3.1820    0.0000    0.0000 H   0  0  0  0  0  0  0  0  0  0  0  0
   -1.5760   -1.7586    0.0000 H   0  0  0  0  0  0  0  0  0  0  0  0
    0.5453    1.7586    0.0000 H   0  0  0  0  0  0  0  0  0  0  0  0
   -0.0000    3.1820    0.0000 H   0  0  0  0  0  0  0  0  0  0  0  0
   -1.7586    1.5760    0.0000 H   0  0  0  0  0  0  0  0  0  0  0  0
   -0.9393    4.1054    0.0000 H   0  0  0  0  0  0  0  0  0  0  0  0
   -3.0448    1.9999    0.0000 H   0  0  0  0  0  0  0  0  0  0  0  0
   -1.4613    6.7001    0.0000 H   0  0  0  0  0  0  0  0  0  0  0  0
   -3.4363    6.4751    0.0000 H   0  0  0  0  0  0  0  0  0  0  0  0
   -0.9972    4.7672    0.0000 H   0  0  0  0  0  0  0  0  0  0  0  0
   -4.3327    6.3620    0.0000 H   0  0  0  0  0  0  0  0  0  0  0  0
   -6.0087    5.1885    0.0000 H   0  0  0  0  0  0  0  0  0  0  0  0
   -3.9472    1.9557    0.0000 H   0  0  0  0  0  0  0  0  0  0  0  0
   -5.4714    1.5452    0.0000 H   0  0  0  0  0  0  0  0  0  0  0  0
   -6.4215    4.3848    0.0000 H   0  0  0  0  0  0  0  0  0  0  0  0
   -7.5172    4.0912    0.0000 H   0  0  0  0  0  0  0  0  0  0  0  0
   -6.9203    1.1569    0.0000 H   0  0  0  0  0  0  0  0  0  0  0  0
   -8.6266    0.7233    0.0000 H   0  0  0  0  0  0  0  0  0  0  0  0
  -10.6399    0.8994    0.0000 H   0  0  0  0  0  0  0  0  0  0  0  0
  -11.6111    2.9823    0.0000 H   0  0  0  0  0  0  0  0  0  0  0  0
   -8.2766    4.5808    0.0000 H   0  0  0  0  0  0  0  0  0  0  0  0
  1  2  1  0
  2  3  1  0
  3  4  1  0
  4  5  1  0
  4  6  1  0
  6  7  1  0
  6  8  1  0
  8  9  1  0
  9 10  1  0
 11 10  1  6
 11 12  1  0
 11 13  1  0
 13 14  1  0
 14 15  1  0
 15 16  1  0
 16 17  1  0
 17 18  1  0
 18 19  1  0
 19 20  1  0
  8  3  1  0
 14 11  1  0
 19 17  1  0
  1 21  1  0
  1 22  1  0
  1 23  1  0
  2 24  1  0
  2 25  1  0
  3 26  1  1
  4 27  1  1
  5 28  1  0
  5 29  1  0
  6 30  1  6
  7 31  1  0
  7 32  1  0
  7 33  1  0
  8 34  1  6
  9 35  1  0
  9 36  1  0
 10 37  1  0
 10 38  1  0
 12 39  1  0
 12 40  1  0
 12 41  1  0
 13 42  1  0
 13 43  1  0
 14 44  1  1
 15 45  1  0
 15 46  1  0
 16 47  1  0
 16 48  1  0
 17 49  1  6
 18 50  1  0
 18 51  1  0
 19 52  1  6
M  END
$$$$
