
     RDKit          2D

 99102  0  0  0  0  0  0  0  0999 V2000
    3.4470   -2.9674    0.0000 C   0  0  0  0  0  0  0  0  0  0  0  0
    2.8730   -1.5816    0.0000 C   0  0  0  0  0  0  0  0  0  0  0  0
    1.3858   -1.3858    0.0000 C   0  0  0  0  0  0  0  0  0  0  0  0
    1.9598    0.0000    0.0000 C   0  0  0  0  0  0  0  0  0  0  0  0
    1.3858    1.3858    0.0000 C   0  0  0  0  0  0  0  0  0  0  0  0
    0.0000    1.9598    0.0000 C   0  0  0  0  0  0  0  0  0  0  0  0
   -1.3858    1.3858    0.0000 C   0  0  0  0  0  0  0  0  0  0  0  0
   -1.9598    0.0000    0.0000 C   0  0  0  0  0  0  0  0  0  0  0  0
   -3.1499   -0.9131    0.0000 C   0  0  0  0  0  0  0  0  0  0  0  0
   -4.3399   -1.8263    0.0000 C   0  0  0  0  0  0  0  0  0  0  0  0
   -4.0630    0.2769    0.0000 N   0  0  0  0  0  0  0  0  0  0  0  0
   -5.5502    0.0811    0.0000 C   0  0  0  0  0  0  0  0  0  0  0  0
   -7.0146    0.4058    0.0000 O   0  0  0  0  0  0  0  0  0  0  0  0
   -6.0012    1.5117    0.0000 C   0  0  0  0  0  0  0  0  0  0  0  0
   -6.9144    2.7017    0.0000 C   0  0  0  0  0  0  0  0  0  0  0  0
   -7.8275    3.8917    0.0000 C   0  0  0  0  0  0  0  0  0  0  0  0
   -1.3858   -1.3858    0.0000 C   0  0  0  0  0  0  0  0  0  0  0  0
   -0.0000   -1.9598    0.0000 C   0  0  0  0  0  0  0  0  0  0  0  0
    3.7861   -0.3916    0.0000 C   0  0  0  0  0  0  0  0  0  0  0  0
    4.6993    0.7985    0.0000 C   0  0  0  0  0  0  0  0  0  0  0  0
    4.9762   -1.3047    0.0000 C   0  0  0  0  0  0  0  0  0  0  0  0
    6.1662   -2.2179    0.0000 C   0  0  0  0  0  0  0  0  0  0  0  0
    5.8893   -0.1147    0.0000 C   0  0  0  0  0  0  0  0  0  0  0  0
    6.8024    1.0753    0.0000 C   0  0  0  0  0  0  0  0  0  0  0  0
    7.7156   -0.1147    0.0000 C   0  0  0  0  0  0  0  0  0  0  0  0
    9.2028   -0.3105    0.0000 C   0  0  0  0  0  0  0  0  0  0  0  0
   10.3928    0.6027    0.0000 C   0  0  0  0  0  0  0  0  0  0  0  0
   10.5886    2.0898    0.0000 C   0  0  0  0  0  0  0  0  0  0  0  0
    9.6754    3.2799    0.0000 C   0  0  0  0  0  0  0  0  0  0  0  0
    8.1883    3.4756    0.0000 C   0  0  0  0  0  0  0  0  0  0  0  0
    6.9982    2.5625    0.0000 C   0  0  0  0  0  0  0  0  0  0  0  0
    5.5111    2.3667    0.0000 C   0  0  0  0  0  0  0  0  0  0  0  0
    5.3153    3.8539    0.0000 N   0  0  0  0  0  0  0  0  0  0  0  0
    4.0239    2.1709    0.0000 C   0  0  0  0  0  0  0  0  0  0  0  0
    2.5367    1.9751    0.0000 C   0  0  0  0  0  0  0  0  0  0  0  0
    1.0723    2.2998    0.0000 C   0  0  0  0  0  0  0  0  0  0  0  0
    2.0857    3.4057    0.0000 C   0  0  0  0  0  0  0  0  0  0  0  0
    4.8992   -3.3430    0.0000 H   0  0  0  0  0  0  0  0  0  0  0  0
    2.5339   -4.1575    0.0000 H   0  0  0  0  0  0  0  0  0  0  0  0
    1.7614   -2.8380    0.0000 H   0  0  0  0  0  0  0  0  0  0  0  0
    3.1499    0.9131    0.0000 H   0  0  0  0  0  0  0  0  0  0  0  0
    2.9627   -0.4360    0.0000 H   0  0  0  0  0  0  0  0  0  0  0  0
    1.1997    2.1609    0.0000 H   0  0  0  0  0  0  0  0  0  0  0  0
    2.8730    1.5816    0.0000 H   0  0  0  0  0  0  0  0  0  0  0  0
   -0.9131    3.1499    0.0000 H   0  0  0  0  0  0  0  0  0  0  0  0
    0.7613    3.2523    0.0000 H   0  0  0  0  0  0  0  0  0  0  0  0
   -2.7814    1.9356    0.0000 H   0  0  0  0  0  0  0  0  0  0  0  0
   -1.7614    2.8380    0.0000 H   0  0  0  0  0  0  0  0  0  0  0  0
   -3.1499    0.9131    0.0000 H   0  0  0  0  0  0  0  0  0  0  0  0
   -2.3886   -2.2056    0.0000 H   0  0  0  0  0  0  0  0  0  0  0  0
   -5.5299   -2.7394    0.0000 H   0  0  0  0  0  0  0  0  0  0  0  0
   -5.6189   -1.0426    0.0000 H   0  0  0  0  0  0  0  0  0  0  0  0
   -3.4268   -3.0163    0.0000 H   0  0  0  0  0  0  0  0  0  0  0  0
   -3.8414    1.7604    0.0000 H   0  0  0  0  0  0  0  0  0  0  0  0
   -5.7978   -1.3983    0.0000 H   0  0  0  0  0  0  0  0  0  0  0  0
   -4.6707    2.2043    0.0000 H   0  0  0  0  0  0  0  0  0  0  0  0
   -5.7244    3.6148    0.0000 H   0  0  0  0  0  0  0  0  0  0  0  0
   -8.1044    1.7886    0.0000 H   0  0  0  0  0  0  0  0  0  0  0  0
   -8.7407    5.0818    0.0000 H   0  0  0  0  0  0  0  0  0  0  0  0
   -9.0176    2.9786    0.0000 H   0  0  0  0  0  0  0  0  0  0  0  0
   -6.6375    4.8049    0.0000 H   0  0  0  0  0  0  0  0  0  0  0  0
   -1.7614   -2.8380    0.0000 H   0  0  0  0  0  0  0  0  0  0  0  0
   -2.7040   -2.1017    0.0000 H   0  0  0  0  0  0  0  0  0  0  0  0
    0.7613   -3.2523    0.0000 H   0  0  0  0  0  0  0  0  0  0  0  0
   -0.7613   -3.2523    0.0000 H   0  0  0  0  0  0  0  0  0  0  0  0
    2.5961    0.5216    0.0000 H   0  0  0  0  0  0  0  0  0  0  0  0
    5.1252    2.2367    0.0000 H   0  0  0  0  0  0  0  0  0  0  0  0
    5.9917    0.0372    0.0000 H   0  0  0  0  0  0  0  0  0  0  0  0
    3.5092    1.7116    0.0000 H   0  0  0  0  0  0  0  0  0  0  0  0
    4.3781   -2.6803    0.0000 H   0  0  0  0  0  0  0  0  0  0  0  0
    7.3562   -3.1310    0.0000 H   0  0  0  0  0  0  0  0  0  0  0  0
    7.0793   -1.0278    0.0000 H   0  0  0  0  0  0  0  0  0  0  0  0
    5.4049   -3.5103    0.0000 H   0  0  0  0  0  0  0  0  0  0  0  0
    7.0793   -1.0278    0.0000 H   0  0  0  0  0  0  0  0  0  0  0  0
    4.9556    1.0593    0.0000 H   0  0  0  0  0  0  0  0  0  0  0  0
    5.3189    1.2970    0.0000 H   0  0  0  0  0  0  0  0  0  0  0  0
    7.7286   -1.6146    0.0000 H   0  0  0  0  0  0  0  0  0  0  0  0
    6.6276   -1.1473    0.0000 H   0  0  0  0  0  0  0  0  0  0  0  0
   10.2726   -1.3619    0.0000 H   0  0  0  0  0  0  0  0  0  0  0  0
    8.8019   -1.7559    0.0000 H   0  0  0  0  0  0  0  0  0  0  0  0
   11.8927    0.6157    0.0000 H   0  0  0  0  0  0  0  0  0  0  0  0
   11.1315   -0.7029    0.0000 H   0  0  0  0  0  0  0  0  0  0  0  0
   11.6400    3.1597    0.0000 H   0  0  0  0  0  0  0  0  0  0  0  0
   12.0340    1.6890    0.0000 H   0  0  0  0  0  0  0  0  0  0  0  0
    9.6624    4.7798    0.0000 H   0  0  0  0  0  0  0  0  0  0  0  0
   10.9809    4.0185    0.0000 H   0  0  0  0  0  0  0  0  0  0  0  0
    7.2546    4.6496    0.0000 H   0  0  0  0  0  0  0  0  0  0  0  0
    8.5891    4.9211    0.0000 H   0  0  0  0  0  0  0  0  0  0  0  0
    6.4242    3.9483    0.0000 H   0  0  0  0  0  0  0  0  0  0  0  0
    5.5241    0.8668    0.0000 H   0  0  0  0  0  0  0  0  0  0  0  0
    4.2273    4.8865    0.0000 H   0  0  0  0  0  0  0  0  0  0  0  0
    6.2490    5.0278    0.0000 H   0  0  0  0  0  0  0  0  0  0  0  0
    4.0108    3.6709    0.0000 H   0  0  0  0  0  0  0  0  0  0  0  0
    3.6483    3.6231    0.0000 H   0  0  0  0  0  0  0  0  0  0  0  0
    2.8359    0.5053    0.0000 H   0  0  0  0  0  0  0  0  0  0  0  0
    0.4983    0.9140    0.0000 H   0  0  0  0  0  0  0  0  0  0  0  0
   -0.0851    3.2539    0.0000 H   0  0  0  0  0  0  0  0  0  0  0  0
    1.1725    4.5957    0.0000 H   0  0  0  0  0  0  0  0  0  0  0  0
    3.0795    4.5292    0.0000 H   0  0  0  0  0  0  0  0  0  0  0  0
  1  2  2  3
  2  3  1  0
  3  4  1  0
  4  5  1  0
  5  6  1  0
  6  7  1  0
  7  8  1  0
  8  9  1  0
  9 10  1  0
  9 11  1  0
 11 12  1  0
 12 13  1  0
 13 14  1  0
 14 15  1  0
 15 16  1  0
  8 17  1  0
 17 18  1  0
  2 19  1  0
 19 20  1  0
 19 21  1  0
 21 22  1  0
 21 23  1  0
 23 24  1  0
 24 25  1  0
 25 26  1  0
 26 27  1  0
 27 28  1  0
 28 29  1  0
 29 30  1  0
 30 31  1  0
 31 32  1  0
 32 33  1  0
 32 34  1  0
 34 35  1  0
 35 36  1  0
 36 37  1  0
 18  3  1  0
 31 24  1  0
 37 35  1  0
 14 12  1  0
  1 38  1  0
  1 39  1  0
  3 40  1  0
  4 41  1  0
  4 42  1  0
  5 43  1  0
  5 44  1  0
  6 45  1  0
  6 46  1  0
  7 47  1  0
  7 48  1  0
  8 49  1  0
  9 50  1  0
 10 51  1  0
 10 52  1  0
 10 53  1  0
 11 54  1  0
 12 55  1  0
 14 56  1  0
 15 57  1  0
 15 58  1  0
 16 59  1  0
 16 60  1  0
 16 61  1  0
 17 62  1  0
 17 63  1  0
 18 64  1  0
 18 65  1  0
 19 66  1  0
 20 67  1  0
 20 68  1  0
 20 69  1  0
 21 70  1  0
 22 71  1  0
 22 72  1  0
 22 73  1  0
 23 74  1  0
 23 75  1  0
 24 76  1  0
 25 77  1  0
 25 78  1  0
 26 79  1  0
 26 80  1  0
 27 81  1  0
 27 82  1  0
 28 83  1  0
 28 84  1  0
 29 85  1  0
 29 86  1  0
 30 87  1  0
 30 88  1  0
 31 89  1  0
 32 90  1  0
 33 91  1  0
 33 92  1  0
 34 93  1  0
 34 94  1  0
 35 95  1  0
 36 96  1  0
 36 97  1  0
 37 98  1  0
 37 99  1  0
M  END
$$$$
