
     RDKit          2D

 33 38  0  0  0  0  0  0  0  0999 V2000
   -6.2292   -2.2632    0.0000 C   0  0  0  0  0  0  0  0  0  0  0  0
   -5.4792   -0.9642    0.0000 C   0  0  0  0  0  0  0  0  0  0  0  0
   -4.0697   -1.4772    0.0000 C   0  0  0  0  0  0  0  0  0  0  0  0
   -4.3301    0.0000    0.0000 C   0  0  0  0  0  0  0  0  0  0  0  0
   -5.0801    1.2990    0.0000 C   0  0  0  0  0  0  0  0  0  0  0  0
   -5.8301    2.5981    0.0000 C   0  0  0  0  0  0  0  0  0  0  0  0
   -3.7811    2.0490    0.0000 C   0  0  0  0  0  0  0  0  0  0  0  0
   -3.0311    0.7500    0.0000 C   0  0  0  0  0  0  0  0  0  0  0  0
   -1.7321    1.5000    0.0000 C   0  0  0  0  0  0  0  0  0  0  0  0
   -2.4821    2.7990    0.0000 Al  0  0  0  0  0  5  0  0  0  0  0  0
   -2.0938    4.2479    0.0000 O   0  0  0  0  0  0  0  0  0  0  0  0
   -0.4330    0.7500    0.0000 C   0  0  0  0  0  0  0  0  0  0  0  0
    0.8660    0.0000    0.0000 O   0  0  0  0  0  0  0  0  0  0  0  0
   -0.4330   -0.7500    0.0000 C   0  0  0  0  0  0  0  0  0  0  0  0
   -0.4330   -2.2500    0.0000 O   0  0  0  0  0  0  0  0  0  0  0  0
   -1.7321    0.0000    0.0000 C   0  0  0  0  0  0  0  0  0  0  0  0
   -6.9792   -3.5623    0.0000 H   0  0  0  0  0  0  0  0  0  0  0  0
   -7.5282   -1.5132    0.0000 H   0  0  0  0  0  0  0  0  0  0  0  0
   -5.1511   -3.0757    0.0000 H   0  0  0  0  0  0  0  0  0  0  0  0
   -6.7372   -0.1473    0.0000 H   0  0  0  0  0  0  0  0  0  0  0  0
   -2.5697   -1.4772    0.0000 H   0  0  0  0  0  0  0  0  0  0  0  0
   -4.1403   -2.8254    0.0000 H   0  0  0  0  0  0  0  0  0  0  0  0
   -3.5373    0.0833    0.0000 H   0  0  0  0  0  0  0  0  0  0  0  0
   -6.4609    0.7130    0.0000 H   0  0  0  0  0  0  0  0  0  0  0  0
   -6.5801    3.8971    0.0000 H   0  0  0  0  0  0  0  0  0  0  0  0
   -7.1292    1.8481    0.0000 H   0  0  0  0  0  0  0  0  0  0  0  0
   -4.6322    3.5008    0.0000 H   0  0  0  0  0  0  0  0  0  0  0  0
   -4.3671    3.4298    0.0000 H   0  0  0  0  0  0  0  0  0  0  0  0
   -3.8036   -0.5358    0.0000 H   0  0  0  0  0  0  0  0  0  0  0  0
   -3.6721    3.7122    0.0000 H   0  0  0  0  0  0  0  0  0  0  0  0
   -0.9949    2.9948    0.0000 H   0  0  0  0  0  0  0  0  0  0  0  0
   -0.6449    4.6362    0.0000 H   0  0  0  0  0  0  0  0  0  0  0  0
   -1.7321   -3.0000    0.0000 H   0  0  0  0  0  0  0  0  0  0  0  0
  1  2  1  0
  2  3  1  0
  3  4  1  0
  4  5  1  0
  5  6  1  0
  5  7  1  0
  7  8  1  0
  8  9  1  0
  9 10  1  0
 10 11  1  0
  9 12  1  0
 12 13  1  0
 13 14  1  0
 14 15  1  0
 14 16  1  0
  4  2  1  0
 10  7  1  0
 14 12  1  0
 16  8  1  0
 16  9  1  0
 16 12  1  0
  1 17  1  0
  1 18  1  0
  1 19  1  0
  2 20  1  0
  3 21  1  0
  3 22  1  0
  4 23  1  0
  5 24  1  0
  6 25  1  0
  6 26  1  0
  6 27  1  0
  7 28  1  0
  8 29  1  0
 10 30  1  0
 10 31  1  0
 11 32  1  0
 15 33  1  0
M  END
$$$$
