
     RDKit          2D

 34 35  0  0  0  0  0  0  0  0999 V2000
   -2.9093    2.1888    0.0000 C   0  0  0  0  0  0  0  0  0  0  0  0
   -1.4321    1.9284    0.0000 C   0  0  0  0  0  0  0  0  0  0  0  0
   -0.4679    3.0774    0.0000 C   0  0  0  0  0  0  0  0  0  0  0  0
    0.4963    4.2265    0.0000 C   0  0  0  0  0  0  0  0  0  0  0  0
    1.4604    5.3756    0.0000 C   0  0  0  0  0  0  0  0  0  0  0  0
    1.6453    3.2623    0.0000 C   0  0  0  0  0  0  0  0  0  0  0  0
    2.7944    2.2981    0.0000 C   0  0  0  0  0  0  0  0  0  0  0  0
    3.9435    1.3340    0.0000 C   0  0  0  0  0  0  0  0  0  0  0  0
    1.8302    1.1491    0.0000 C   0  0  0  0  0  0  0  0  0  0  0  0
    0.8660    0.0000    0.0000 C   0  0  0  0  0  0  0  0  0  0  0  0
    1.8302   -1.1491    0.0000 C   0  0  0  0  0  0  0  0  0  0  0  0
    1.3172   -2.5586    0.0000 C   0  0  0  0  0  0  0  0  0  0  0  0
    0.3530   -1.4095    0.0000 N   0  0  0  0  0  0  0  0  0  0  0  0
   -3.8735    1.0398    0.0000 H   0  0  0  0  0  0  0  0  0  0  0  0
   -3.4223    3.5984    0.0000 H   0  0  0  0  0  0  0  0  0  0  0  0
   -1.0947    0.4668    0.0000 H   0  0  0  0  0  0  0  0  0  0  0  0
   -1.0116    3.6605    0.0000 H   0  0  0  0  0  0  0  0  0  0  0  0
   -1.1365    3.5116    0.0000 H   0  0  0  0  0  0  0  0  0  0  0  0
   -0.6528    5.1907    0.0000 H   0  0  0  0  0  0  0  0  0  0  0  0
    2.4246    6.5246    0.0000 H   0  0  0  0  0  0  0  0  0  0  0  0
    0.3114    6.3397    0.0000 H   0  0  0  0  0  0  0  0  0  0  0  0
    2.7185    4.5586    0.0000 H   0  0  0  0  0  0  0  0  0  0  0  0
    0.5483    2.2393    0.0000 H   0  0  0  0  0  0  0  0  0  0  0  0
    2.7424    4.2853    0.0000 H   0  0  0  0  0  0  0  0  0  0  0  0
    3.7586    3.4472    0.0000 H   0  0  0  0  0  0  0  0  0  0  0  0
    5.0925    0.3698    0.0000 H   0  0  0  0  0  0  0  0  0  0  0  0
    4.9076    2.4830    0.0000 H   0  0  0  0  0  0  0  0  0  0  0  0
    3.1265    0.0759    0.0000 H   0  0  0  0  0  0  0  0  0  0  0  0
    2.8532    0.0520    0.0000 H   0  0  0  0  0  0  0  0  0  0  0  0
    0.5722    1.9660    0.0000 H   0  0  0  0  0  0  0  0  0  0  0  0
   -0.5147    0.5861    0.0000 H   0  0  0  0  0  0  0  0  0  0  0  0
    3.3074   -0.8886    0.0000 H   0  0  0  0  0  0  0  0  0  0  0  0
    2.6162   -3.3086    0.0000 H   0  0  0  0  0  0  0  0  0  0  0  0
    0.3530   -3.7077    0.0000 H   0  0  0  0  0  0  0  0  0  0  0  0
  1  2  2  3
  2  3  1  0
  3  4  1  0
  4  5  1  0
  4  6  1  0
  6  7  1  0
  7  8  1  0
  7  9  1  0
  9 10  1  0
 10 11  1  0
 11 12  1  0
 12 13  1  0
 13 10  1  0
 13 11  1  0
  1 14  1  0
  1 15  1  0
  2 16  1  0
  3 17  1  0
  3 18  1  0
  4 19  1  0
  5 20  1  0
  5 21  1  0
  5 22  1  0
  6 23  1  0
  6 24  1  0
  7 25  1  0
  8 26  1  0
  8 27  1  0
  8 28  1  0
  9 29  1  0
  9 30  1  0
 10 31  1  0
 11 32  1  0
 12 33  1  0
 12 34  1  0
M  END
$$$$
