
     RDKit          2D

 34 34  0  0  0  0  0  0  0  0999 V2000
    2.7944    2.2981    0.0000 C   0  0  0  0  0  0  0  0  0  0  0  0
    1.8302    1.1491    0.0000 C   0  0  0  0  0  0  0  0  0  0  0  0
    0.8660    0.0000    0.0000 C   0  0  0  0  0  0  0  0  0  0  0  0
    1.8302   -1.1491    0.0000 C   0  0  0  0  0  0  0  0  0  0  0  0
   -0.4330    0.7500    0.0000 C   0  0  0  0  0  0  0  0  0  0  0  0
   -0.4330   -0.7500    0.0000 C   0  0  0  0  0  0  0  0  0  0  0  0
    0.0800   -2.1595    0.0000 C   0  0  0  0  0  0  0  0  0  0  0  0
    0.5930   -3.5691    0.0000 C   0  0  0  0  0  0  0  0  0  0  0  0
    1.1061   -4.9786    0.0000 C   0  0  0  0  0  0  0  0  0  0  0  0
    0.1419   -6.1277    0.0000 C   0  0  0  0  0  0  0  0  0  0  0  0
    0.6549   -7.5372    0.0000 C   0  0  0  0  0  0  0  0  0  0  0  0
    1.1680   -8.9468    0.0000 C   0  0  0  0  0  0  0  0  0  0  0  0
    2.6452   -9.2072    0.0000 N   0  0  0  0  0  0  0  0  0  0  0  0
    3.7586    3.4472    0.0000 H   0  0  0  0  0  0  0  0  0  0  0  0
    1.6453    3.2623    0.0000 H   0  0  0  0  0  0  0  0  0  0  0  0
    3.9435    1.3340    0.0000 H   0  0  0  0  0  0  0  0  0  0  0  0
    2.8492    0.4874    0.0000 H   0  0  0  0  0  0  0  0  0  0  0  0
    0.9095    2.1364    0.0000 H   0  0  0  0  0  0  0  0  0  0  0  0
    2.7944   -2.2981    0.0000 H   0  0  0  0  0  0  0  0  0  0  0  0
    2.8492   -0.4874    0.0000 H   0  0  0  0  0  0  0  0  0  0  0  0
    1.3617   -1.7940    0.0000 H   0  0  0  0  0  0  0  0  0  0  0  0
   -1.9102    1.0105    0.0000 H   0  0  0  0  0  0  0  0  0  0  0  0
   -0.1294    2.0654    0.0000 H   0  0  0  0  0  0  0  0  0  0  0  0
   -1.9102   -1.0105    0.0000 H   0  0  0  0  0  0  0  0  0  0  0  0
   -1.3295   -2.6726    0.0000 H   0  0  0  0  0  0  0  0  0  0  0  0
    0.8728   -2.0763    0.0000 H   0  0  0  0  0  0  0  0  0  0  0  0
    2.0026   -3.0560    0.0000 H   0  0  0  0  0  0  0  0  0  0  0  0
   -0.8165   -4.0821    0.0000 H   0  0  0  0  0  0  0  0  0  0  0  0
    2.5833   -5.2391    0.0000 H   0  0  0  0  0  0  0  0  0  0  0  0
   -1.3353   -5.8672    0.0000 H   0  0  0  0  0  0  0  0  0  0  0  0
   -0.7546   -8.0503    0.0000 H   0  0  0  0  0  0  0  0  0  0  0  0
    2.0645   -7.0242    0.0000 H   0  0  0  0  0  0  0  0  0  0  0  0
    0.2038  -10.0958    0.0000 H   0  0  0  0  0  0  0  0  0  0  0  0
    3.1582  -10.6168    0.0000 H   0  0  0  0  0  0  0  0  0  0  0  0
  1  2  1  0
  3  2  1  6
  3  4  1  0
  3  5  1  0
  5  6  1  0
  6  7  1  0
  7  8  1  0
  8  9  1  0
  9 10  2  3
 10 11  1  0
 11 12  1  0
 12 13  2  3
  6  3  1  0
  1 14  1  0
  1 15  1  0
  1 16  1  0
  2 17  1  0
  2 18  1  0
  4 19  1  0
  4 20  1  0
  4 21  1  0
  5 22  1  0
  5 23  1  0
  6 24  1  1
  7 25  1  0
  7 26  1  0
  8 27  1  0
  8 28  1  0
  9 29  1  0
 10 30  1  0
 11 31  1  0
 11 32  1  0
 12 33  1  0
 13 34  1  0
M  END
$$$$
