
     RDKit          2D

 47 50  0  0  0  0  0  0  0  0999 V2000
   -9.1181   -2.8024    0.0000 C   0  0  0  0  0  0  0  0  0  0  0  0
   -7.6409   -2.5419    0.0000 C   0  0  0  0  0  0  0  0  0  0  0  0
   -6.1637   -2.2814    0.0000 C   0  0  0  0  0  0  0  0  0  0  0  0
   -4.6865   -2.0209    0.0000 C   0  0  0  0  0  0  0  0  0  0  0  0
   -3.2093   -1.7605    0.0000 C   0  0  0  0  0  0  0  0  0  0  0  0
   -1.7321   -1.5000    0.0000 C   0  0  0  0  0  0  0  0  0  0  0  0
   -1.7321    0.0000    0.0000 C   0  0  0  0  0  0  0  0  0  0  0  0
   -0.4330    0.7500    0.0000 C   0  0  0  0  0  0  0  0  0  0  0  0
    0.8660    0.0000    0.0000 C   0  0  0  0  0  0  0  0  0  0  0  0
   -0.4330   -0.7500    0.0000 C   0  0  0  0  0  0  0  0  0  0  0  0
   -4.4260   -3.4982    0.0000 C   0  0  0  0  0  0  0  0  0  0  0  0
   -4.1655   -4.9754    0.0000 C   0  0  0  0  0  0  0  0  0  0  0  0
   -3.9051   -6.4526    0.0000 C   0  0  0  0  0  0  0  0  0  0  0  0
   -3.6446   -7.9298    0.0000 N   0  0  0  0  0  0  0  0  0  0  0  0
   -2.4278   -6.1921    0.0000 N   0  0  0  0  0  0  0  0  0  0  0  0
   -5.9032   -3.7586    0.0000 C   0  0  0  0  0  0  0  0  0  0  0  0
   -7.2023   -4.5086    0.0000 C   0  0  0  0  0  0  0  0  0  0  0  0
   -5.9032   -5.2586    0.0000 C   0  0  0  0  0  0  0  0  0  0  0  0
   -6.4162   -6.6682    0.0000 O   0  0  0  0  0  0  0  0  0  0  0  0
  -10.5953   -3.0628    0.0000 H   0  0  0  0  0  0  0  0  0  0  0  0
   -8.8576   -4.2796    0.0000 H   0  0  0  0  0  0  0  0  0  0  0  0
   -9.3786   -1.3251    0.0000 H   0  0  0  0  0  0  0  0  0  0  0  0
   -7.9014   -1.0647    0.0000 H   0  0  0  0  0  0  0  0  0  0  0  0
   -7.7351   -3.8886    0.0000 H   0  0  0  0  0  0  0  0  0  0  0  0
   -6.2193   -3.0766    0.0000 H   0  0  0  0  0  0  0  0  0  0  0  0
   -6.4242   -0.8042    0.0000 H   0  0  0  0  0  0  0  0  0  0  0  0
   -4.9469   -0.5437    0.0000 H   0  0  0  0  0  0  0  0  0  0  0  0
   -3.4697   -0.2833    0.0000 H   0  0  0  0  0  0  0  0  0  0  0  0
   -2.7707   -3.1949    0.0000 H   0  0  0  0  0  0  0  0  0  0  0  0
   -1.2190   -2.9095    0.0000 H   0  0  0  0  0  0  0  0  0  0  0  0
   -3.0311    0.7500    0.0000 H   0  0  0  0  0  0  0  0  0  0  0  0
   -0.4330    2.2500    0.0000 H   0  0  0  0  0  0  0  0  0  0  0  0
    1.8302    1.1491    0.0000 H   0  0  0  0  0  0  0  0  0  0  0  0
    1.8302   -1.1491    0.0000 H   0  0  0  0  0  0  0  0  0  0  0  0
   -2.9281   -3.4197    0.0000 H   0  0  0  0  0  0  0  0  0  0  0  0
   -2.7311   -4.5368    0.0000 H   0  0  0  0  0  0  0  0  0  0  0  0
   -5.5358   -5.5855    0.0000 H   0  0  0  0  0  0  0  0  0  0  0  0
   -5.3823   -6.7131    0.0000 H   0  0  0  0  0  0  0  0  0  0  0  0
   -2.2350   -8.4428    0.0000 H   0  0  0  0  0  0  0  0  0  0  0  0
   -4.7937   -8.8940    0.0000 H   0  0  0  0  0  0  0  0  0  0  0  0
   -1.4637   -7.3412    0.0000 H   0  0  0  0  0  0  0  0  0  0  0  0
   -1.7468   -4.8556    0.0000 H   0  0  0  0  0  0  0  0  0  0  0  0
   -6.7421   -2.5151    0.0000 H   0  0  0  0  0  0  0  0  0  0  0  0
   -8.1664   -3.3596    0.0000 H   0  0  0  0  0  0  0  0  0  0  0  0
   -8.1664   -5.6577    0.0000 H   0  0  0  0  0  0  0  0  0  0  0  0
   -4.5329   -5.8688    0.0000 H   0  0  0  0  0  0  0  0  0  0  0  0
   -5.4521   -7.8172    0.0000 H   0  0  0  0  0  0  0  0  0  0  0  0
  1  2  1  0
  2  3  1  0
  3  4  1  0
  4  5  1  0
  5  6  1  0
  6  7  1  0
  7  8  1  0
  8  9  1  0
  9 10  1  0
  4 11  1  0
 11 12  1  0
 12 13  1  0
 13 14  1  0
 13 15  1  0
 11 16  1  0
 16 17  1  0
 17 18  1  0
 18 19  1  0
 10  6  1  0
 18 16  1  0
 10  7  1  0
 10  8  1  0
  1 20  1  0
  1 21  1  0
  1 22  1  0
  2 23  1  0
  2 24  1  0
  3 25  1  0
  3 26  1  0
  4 27  1  0
  5 28  1  0
  5 29  1  0
  6 30  1  0
  7 31  1  0
  8 32  1  0
  9 33  1  0
  9 34  1  0
 11 35  1  0
 12 36  1  0
 12 37  1  0
 13 38  1  0
 14 39  1  0
 14 40  1  0
 15 41  1  0
 15 42  1  0
 16 43  1  0
 17 44  1  0
 17 45  1  0
 18 46  1  0
 19 47  1  0
M  END
$$$$
