
     RDKit          2D

 23 26  0  0  0  0  0  0  0  0999 V2000
    1.0670    5.2500    0.0000 N   0  0  0  0  0  2  0  0  0  0  0  0
   -0.4330    5.2500    0.0000 C   0  0  0  0  0  0  0  0  0  0  0  0
   -1.9330    5.2500    0.0000 N   0  0  0  0  0  2  0  0  0  0  0  0
   -1.9330    3.7500    0.0000 C   0  0  0  0  0  0  0  0  0  0  0  0
   -0.4330    3.7500    0.0000 C   0  0  0  0  0  0  0  0  0  0  0  0
   -0.4330    2.2500    0.0000 C   0  0  0  0  0  0  0  0  0  0  0  0
   -0.4330    0.7500    0.0000 C   0  0  0  0  0  0  0  0  0  0  0  0
    0.8660    0.0000    0.0000 C   0  0  0  0  0  0  0  0  0  0  0  0
   -0.4330   -0.7500    0.0000 C   0  0  0  0  0  0  0  0  0  0  0  0
   -1.7321   -1.5000    0.0000 C   0  0  0  0  0  0  0  0  0  0  0  0
   -1.7321    0.0000    0.0000 C   0  0  0  0  0  0  0  0  0  0  0  0
    1.8170    6.5490    0.0000 H   0  0  0  0  0  0  0  0  0  0  0  0
   -0.4330    6.7500    0.0000 H   0  0  0  0  0  0  0  0  0  0  0  0
   -3.4330    3.7500    0.0000 H   0  0  0  0  0  0  0  0  0  0  0  0
   -2.0410    2.8709    0.0000 H   0  0  0  0  0  0  0  0  0  0  0  0
    1.0670    3.7500    0.0000 H   0  0  0  0  0  0  0  0  0  0  0  0
   -1.3121    2.1420    0.0000 H   0  0  0  0  0  0  0  0  0  0  0  0
    1.0670    2.2500    0.0000 H   0  0  0  0  0  0  0  0  0  0  0  0
    1.8302    1.1491    0.0000 H   0  0  0  0  0  0  0  0  0  0  0  0
    1.8302   -1.1491    0.0000 H   0  0  0  0  0  0  0  0  0  0  0  0
   -1.2190   -2.9095    0.0000 H   0  0  0  0  0  0  0  0  0  0  0  0
   -3.2093   -1.7605    0.0000 H   0  0  0  0  0  0  0  0  0  0  0  0
   -3.0311    0.7500    0.0000 H   0  0  0  0  0  0  0  0  0  0  0  0
  1  2  1  0
  2  3  1  0
  3  4  1  0
  4  5  1  0
  5  6  1  0
  6  7  1  0
  7  8  1  0
  8  9  1  0
  9 10  1  0
 10 11  1  0
  5  2  1  0
  9  7  1  0
 11  7  1  0
 11  9  1  0
  1 12  1  0
  2 13  1  0
  4 14  1  0
  4 15  1  0
  5 16  1  0
  6 17  1  0
  6 18  1  0
  8 19  1  0
  8 20  1  0
 10 21  1  0
 10 22  1  0
 11 23  1  0
M  RAD  2   1   2   3   2
M  END
$$$$
