
     RDKit          2D

 56 56  0  0  0  0  0  0  0  0999 V2000
   12.5477    2.3015    0.0000 C   0  0  0  0  0  0  0  0  0  0  0  0
   11.4871    1.2408    0.0000 C   0  0  0  0  0  0  0  0  0  0  0  0
   10.0382    1.6291    0.0000 N   0  0  0  0  0  0  0  0  0  0  0  0
    9.6500    3.0780    0.0000 C   0  0  0  0  0  0  0  0  0  0  0  0
    9.2617    4.5268    0.0000 O   0  0  0  0  0  0  0  0  0  0  0  0
   10.3224    5.5875    0.0000 N   0  0  0  0  0  0  0  0  0  0  0  0
    8.9775    0.5684    0.0000 C   0  0  0  0  0  0  0  0  0  0  0  0
    7.9169   -0.4923    0.0000 N   0  0  0  0  0  0  0  0  0  0  0  0
    6.4680   -0.1040    0.0000 C   0  0  0  0  0  0  0  0  0  0  0  0
    6.0798    1.3449    0.0000 C   0  0  0  0  0  0  0  0  0  0  0  0
    7.1404    2.4055    0.0000 N   0  0  0  0  0  0  0  0  0  0  0  0
    4.6309    1.7331    0.0000 C   0  0  0  0  0  0  0  0  0  0  0  0
    3.1820    2.1213    0.0000 N   0  0  0  0  0  0  0  0  0  0  0  0
    2.1213    1.0607    0.0000 C   0  0  0  0  0  0  0  0  0  0  0  0
    1.0607    0.0000    0.0000 C   0  0  0  0  0  0  0  0  0  0  0  0
    0.0000   -1.0607    0.0000 C   0  0  0  0  0  0  0  0  0  0  0  0
   -1.0607   -0.0000    0.0000 C   0  0  0  0  0  0  0  0  0  0  0  0
    0.0000    1.0607    0.0000 C   0  0  0  0  0  0  0  0  0  0  0  0
    5.4073   -1.1647    0.0000 N   0  0  0  0  0  0  0  0  0  0  0  0
    3.9584   -0.7765    0.0000 N   0  0  0  0  0  0  0  0  0  0  0  0
    5.7956   -2.6136    0.0000 C   0  0  0  0  0  0  0  0  0  0  0  0
    7.2444   -2.2253    0.0000 N   0  0  0  0  0  2  0  0  0  0  0  0
    4.3467   -3.0018    0.0000 N   0  0  0  0  0  2  0  0  0  0  0  0
   10.0382   -0.4923    0.0000 N   0  0  0  0  0  0  0  0  0  0  0  0
    9.6500   -1.9411    0.0000 S   0  0  0  0  0  0  0  0  0  0  0  0
   10.7106   -3.0018    0.0000 C   0  0  0  0  0  0  0  0  0  0  0  0
   13.9966    1.9133    0.0000 H   0  0  0  0  0  0  0  0  0  0  0  0
   12.1595    3.7504    0.0000 H   0  0  0  0  0  0  0  0  0  0  0  0
   12.0490   -0.1499    0.0000 H   0  0  0  0  0  0  0  0  0  0  0  0
   11.0989    3.4662    0.0000 H   0  0  0  0  0  0  0  0  0  0  0  0
    8.2011    2.6897    0.0000 H   0  0  0  0  0  0  0  0  0  0  0  0
    9.9342    7.0364    0.0000 H   0  0  0  0  0  0  0  0  0  0  0  0
   11.7713    5.1993    0.0000 H   0  0  0  0  0  0  0  0  0  0  0  0
    7.9169    1.6291    0.0000 H   0  0  0  0  0  0  0  0  0  0  0  0
    6.7522    3.8544    0.0000 H   0  0  0  0  0  0  0  0  0  0  0  0
    4.2990    0.9119    0.0000 H   0  0  0  0  0  0  0  0  0  0  0  0
    5.0191    3.1820    0.0000 H   0  0  0  0  0  0  0  0  0  0  0  0
    2.7938    3.5702    0.0000 H   0  0  0  0  0  0  0  0  0  0  0  0
    3.0788    0.3127    0.0000 H   0  0  0  0  0  0  0  0  0  0  0  0
    1.5760    1.7586    0.0000 H   0  0  0  0  0  0  0  0  0  0  0  0
    2.1213   -1.0607    0.0000 H   0  0  0  0  0  0  0  0  0  0  0  0
    1.0607   -2.1213    0.0000 H   0  0  0  0  0  0  0  0  0  0  0  0
   -1.0607   -2.1213    0.0000 H   0  0  0  0  0  0  0  0  0  0  0  0
   -2.1213   -1.0607    0.0000 H   0  0  0  0  0  0  0  0  0  0  0  0
   -2.1213    1.0607    0.0000 H   0  0  0  0  0  0  0  0  0  0  0  0
   -1.0607    2.1213    0.0000 H   0  0  0  0  0  0  0  0  0  0  0  0
    0.5453    1.7586    0.0000 H   0  0  0  0  0  0  0  0  0  0  0  0
    2.8978   -1.8371    0.0000 H   0  0  0  0  0  0  0  0  0  0  0  0
    3.7521   -0.0065    0.0000 H   0  0  0  0  0  0  0  0  0  0  0  0
    6.1838   -4.0625    0.0000 H   0  0  0  0  0  0  0  0  0  0  0  0
    8.3051   -3.2860    0.0000 H   0  0  0  0  0  0  0  0  0  0  0  0
    3.9584   -4.4507    0.0000 H   0  0  0  0  0  0  0  0  0  0  0  0
   11.5236   -0.2835    0.0000 H   0  0  0  0  0  0  0  0  0  0  0  0
   11.7713   -4.0625    0.0000 H   0  0  0  0  0  0  0  0  0  0  0  0
    9.6500   -4.0625    0.0000 H   0  0  0  0  0  0  0  0  0  0  0  0
   11.7713   -1.9411    0.0000 H   0  0  0  0  0  0  0  0  0  0  0  0
  1  2  2  3
  2  3  1  0
  3  4  1  0
  4  5  1  0
  5  6  1  0
  3  7  1  0
  7  8  1  0
  8  9  2  3
  9 10  1  0
 10 11  2  3
 10 12  1  0
 12 13  1  0
 13 14  1  0
 14 15  1  0
 15 16  1  0
 16 17  1  0
 17 18  1  0
  9 19  1  0
 19 20  1  0
 19 21  1  0
 21 22  1  0
 21 23  1  0
  7 24  1  0
 24 25  1  0
 25 26  1  0
 18 15  1  0
  1 27  1  0
  1 28  1  0
  2 29  1  0
  4 30  1  0
  4 31  1  0
  6 32  1  0
  6 33  1  0
  7 34  1  6
 11 35  1  0
 12 36  1  0
 12 37  1  0
 13 38  1  0
 14 39  1  0
 14 40  1  0
 15 41  1  0
 16 42  1  0
 16 43  1  0
 17 44  1  0
 17 45  1  0
 18 46  1  0
 18 47  1  0
 20 48  1  0
 20 49  1  0
 21 50  1  0
 22 51  1  0
 23 52  1  0
 24 53  1  0
 26 54  1  0
 26 55  1  0
 26 56  1  0
M  RAD  2  22   2  23   2
M  END
$$$$
