
     RDKit          2D

 28 27  0  0  0  0  0  0  0  0999 V2000
    0.0000    0.0000    0.0000 C   0  0  0  0  0  0  0  0  0  0  0  0
    1.2990    0.7500    0.0000 C   0  0  0  0  0  0  0  0  0  0  0  0
    2.5981   -0.0000    0.0000 C   0  0  0  0  0  0  0  0  0  0  0  0
    3.8971   -0.7500    0.0000 N   0  0  0  0  0  0  0  0  0  0  0  0
    1.2990    2.2500    0.0000 C   0  0  0  0  0  0  0  0  0  0  0  0
    1.2990    3.7500    0.0000 C   0  0  0  0  0  0  0  0  0  0  0  0
    1.2990    5.2500    0.0000 C   0  0  0  0  0  0  0  0  0  0  0  0
    1.2990    6.7500    0.0000 C   0  0  0  0  0  0  0  0  0  0  0  0
    2.7990    5.2500    0.0000 C   0  0  0  0  0  0  0  0  0  0  0  0
    4.2990    5.2500    0.0000 N   0  0  0  0  0  0  0  0  0  0  0  0
   -1.2990    0.7500    0.0000 H   0  0  0  0  0  0  0  0  0  0  0  0
   -0.0000   -1.5000    0.0000 H   0  0  0  0  0  0  0  0  0  0  0  0
    3.3481    1.2990    0.0000 H   0  0  0  0  0  0  0  0  0  0  0  0
    1.8481   -1.2990    0.0000 H   0  0  0  0  0  0  0  0  0  0  0  0
    3.8971   -2.2500    0.0000 H   0  0  0  0  0  0  0  0  0  0  0  0
    5.1962   -0.0000    0.0000 H   0  0  0  0  0  0  0  0  0  0  0  0
    2.7990    2.2500    0.0000 H   0  0  0  0  0  0  0  0  0  0  0  0
   -0.2010    2.2500    0.0000 H   0  0  0  0  0  0  0  0  0  0  0  0
   -0.2010    3.7500    0.0000 H   0  0  0  0  0  0  0  0  0  0  0  0
    2.1782    3.6420    0.0000 H   0  0  0  0  0  0  0  0  0  0  0  0
   -0.2010    5.2500    0.0000 H   0  0  0  0  0  0  0  0  0  0  0  0
    1.2990    8.2500    0.0000 H   0  0  0  0  0  0  0  0  0  0  0  0
   -0.2010    6.7500    0.0000 H   0  0  0  0  0  0  0  0  0  0  0  0
    2.1782    6.8580    0.0000 H   0  0  0  0  0  0  0  0  0  0  0  0
    2.9070    6.1291    0.0000 H   0  0  0  0  0  0  0  0  0  0  0  0
    2.9070    4.3709    0.0000 H   0  0  0  0  0  0  0  0  0  0  0  0
    5.0490    6.5490    0.0000 H   0  0  0  0  0  0  0  0  0  0  0  0
    5.0490    3.9510    0.0000 H   0  0  0  0  0  0  0  0  0  0  0  0
  1  2  2  3
  2  3  1  0
  3  4  1  0
  2  5  1  0
  5  6  1  0
  6  7  1  0
  7  8  1  0
  7  9  1  0
  9 10  1  0
  1 11  1  0
  1 12  1  0
  3 13  1  0
  3 14  1  0
  4 15  1  0
  4 16  1  0
  5 17  1  0
  5 18  1  0
  6 19  1  0
  6 20  1  0
  7 21  1  0
  8 22  1  0
  8 23  1  0
  8 24  1  0
  9 25  1  0
  9 26  1  0
 10 27  1  0
 10 28  1  0
M  END
$$$$
