
     RDKit          2D

 94101  0  0  0  0  0  0  0  0999 V2000
   -4.4286    9.2490    0.0000 C   0  0  0  0  0  0  0  0  0  0  0  0
   -5.6574    8.3886    0.0000 B   0  0  0  0  0  0  0  0  0  0  0  0
   -7.1346    8.6491    0.0000 C   0  0  0  0  0  0  0  0  0  0  0  0
   -6.8741   10.1263    0.0000 C   0  0  0  0  0  0  0  0  0  0  0  0
   -7.3951    7.1719    0.0000 C   0  0  0  0  0  0  0  0  0  0  0  0
   -5.9178    6.9114    0.0000 C   0  0  0  0  0  0  0  0  0  0  0  0
   -6.1783    5.4342    0.0000 C   0  0  0  0  0  0  0  0  0  0  0  0
   -6.4388    3.9570    0.0000 C   0  0  0  0  0  0  0  0  0  0  0  0
   -7.9388    3.9570    0.0000 C   0  0  0  0  0  0  0  0  0  0  0  0
   -9.4388    3.9570    0.0000 C   0  0  0  0  0  0  0  0  0  0  0  0
  -10.9388    3.9570    0.0000 C   0  0  0  0  0  0  0  0  0  0  0  0
  -12.4388    3.9570    0.0000 C   0  0  0  0  0  0  0  0  0  0  0  0
  -13.9388    3.9570    0.0000 I   0  0  0  0  0  0  0  0  0  0  0  0
  -10.9388    5.4570    0.0000 C   0  0  0  0  0  0  0  0  0  0  0  0
  -10.9388    6.9570    0.0000 C   0  0  0  0  0  0  0  0  0  0  0  0
  -12.4388    5.4570    0.0000 C   0  0  0  0  0  0  0  0  0  0  0  0
   -5.0292    3.4440    0.0000 C   0  0  0  0  0  0  0  0  0  0  0  0
   -3.8802    2.4798    0.0000 O   0  0  0  0  0  0  0  0  0  0  0  0
   -2.4706    2.9928    0.0000 C   0  0  0  0  0  0  0  0  0  0  0  0
   -1.0611    3.5058    0.0000 C   0  0  0  0  0  0  0  0  0  0  0  0
    0.0880    4.4700    0.0000 C   0  0  0  0  0  0  0  0  0  0  0  0
    1.2370    3.5058    0.0000 C   0  0  0  0  0  0  0  0  0  0  0  0
   -1.3216    4.9830    0.0000 C   0  0  0  0  0  0  0  0  0  0  0  0
   -1.0611    6.4603    0.0000 C   0  0  0  0  0  0  0  0  0  0  0  0
   -6.1783    2.4798    0.0000 C   0  0  0  0  0  0  0  0  0  0  0  0
   -7.3274    1.5156    0.0000 C   0  0  0  0  0  0  0  0  0  0  0  0
   -5.9178    1.0026    0.0000 C   0  0  0  0  0  0  0  0  0  0  0  0
   -5.6574   -0.4747    0.0000 C   0  0  0  0  0  0  0  0  0  0  0  0
   -4.5083    0.4895    0.0000 Sb  0  0  0  0  0  3  0  0  0  0  0  0
   -3.0311    0.7500    0.0000 C   0  0  0  0  0  0  0  0  0  0  0  0
   -3.5441    2.1595    0.0000 C   0  0  0  0  0  0  0  0  0  0  0  0
   -4.0571    3.5691    0.0000 O   0  0  0  0  0  0  0  0  0  0  0  0
   -4.9537    1.6465    0.0000 F   0  0  0  0  0  0  0  0  0  0  0  0
   -1.7321    1.5000    0.0000 C   0  0  0  0  0  0  0  0  0  0  0  0
   -0.4330    0.7500    0.0000 C   0  0  0  0  0  0  0  0  0  0  0  0
    0.8660   -0.0000    0.0000 C   0  0  0  0  0  0  0  0  0  0  0  0
   -0.4330   -0.7500    0.0000 C   0  0  0  0  0  0  0  0  0  0  0  0
   -1.7321   -1.5000    0.0000 C   0  0  0  0  0  0  0  0  0  0  0  0
   -3.0311   -2.2500    0.0000 C   0  0  0  0  0  0  0  0  0  0  0  0
   -3.0311   -0.7500    0.0000 C   0  0  0  0  0  0  0  0  0  0  0  0
   -3.1999   10.1093    0.0000 H   0  0  0  0  0  0  0  0  0  0  0  0
   -5.1328   10.5734    0.0000 H   0  0  0  0  0  0  0  0  0  0  0  0
   -3.5683    8.0203    0.0000 H   0  0  0  0  0  0  0  0  0  0  0  0
   -8.6118    8.9096    0.0000 H   0  0  0  0  0  0  0  0  0  0  0  0
   -6.6136   11.6035    0.0000 H   0  0  0  0  0  0  0  0  0  0  0  0
   -8.3513   10.3868    0.0000 H   0  0  0  0  0  0  0  0  0  0  0  0
   -5.3762   10.0478    0.0000 H   0  0  0  0  0  0  0  0  0  0  0  0
   -8.8930    7.2503    0.0000 H   0  0  0  0  0  0  0  0  0  0  0  0
   -7.4998    8.6682    0.0000 H   0  0  0  0  0  0  0  0  0  0  0  0
   -4.4406    6.6509    0.0000 H   0  0  0  0  0  0  0  0  0  0  0  0
   -4.6804    5.3557    0.0000 H   0  0  0  0  0  0  0  0  0  0  0  0
   -7.6128    5.8728    0.0000 H   0  0  0  0  0  0  0  0  0  0  0  0
   -8.1216    5.4458    0.0000 H   0  0  0  0  0  0  0  0  0  0  0  0
   -8.1216    2.4682    0.0000 H   0  0  0  0  0  0  0  0  0  0  0  0
   -9.2559    5.4458    0.0000 H   0  0  0  0  0  0  0  0  0  0  0  0
   -9.4388    2.4570    0.0000 H   0  0  0  0  0  0  0  0  0  0  0  0
  -10.9388    2.4570    0.0000 H   0  0  0  0  0  0  0  0  0  0  0  0
  -12.4388    2.4570    0.0000 H   0  0  0  0  0  0  0  0  0  0  0  0
  -12.8017    5.4124    0.0000 H   0  0  0  0  0  0  0  0  0  0  0  0
   -9.4500    5.6398    0.0000 H   0  0  0  0  0  0  0  0  0  0  0  0
  -10.9388    8.4570    0.0000 H   0  0  0  0  0  0  0  0  0  0  0  0
  -12.4276    7.1398    0.0000 H   0  0  0  0  0  0  0  0  0  0  0  0
   -9.4500    6.7741    0.0000 H   0  0  0  0  0  0  0  0  0  0  0  0
  -13.9388    5.4570    0.0000 H   0  0  0  0  0  0  0  0  0  0  0  0
  -12.6216    6.9458    0.0000 H   0  0  0  0  0  0  0  0  0  0  0  0
  -12.8017    4.0016    0.0000 H   0  0  0  0  0  0  0  0  0  0  0  0
   -4.1265    4.6419    0.0000 H   0  0  0  0  0  0  0  0  0  0  0  0
   -2.9837    4.4023    0.0000 H   0  0  0  0  0  0  0  0  0  0  0  0
   -1.6318    1.7493    0.0000 H   0  0  0  0  0  0  0  0  0  0  0  0
   -0.1583    2.3079    0.0000 H   0  0  0  0  0  0  0  0  0  0  0  0
    0.9907    5.6679    0.0000 H   0  0  0  0  0  0  0  0  0  0  0  0
    2.3861    2.5416    0.0000 H   0  0  0  0  0  0  0  0  0  0  0  0
    2.2012    4.6549    0.0000 H   0  0  0  0  0  0  0  0  0  0  0  0
    0.5795    2.1576    0.0000 H   0  0  0  0  0  0  0  0  0  0  0  0
   -2.7770    5.3460    0.0000 H   0  0  0  0  0  0  0  0  0  0  0  0
   -0.8006    7.9375    0.0000 H   0  0  0  0  0  0  0  0  0  0  0  0
    0.4368    6.3818    0.0000 H   0  0  0  0  0  0  0  0  0  0  0  0
   -2.5383    6.7207    0.0000 H   0  0  0  0  0  0  0  0  0  0  0  0
   -8.5854    2.3325    0.0000 H   0  0  0  0  0  0  0  0  0  0  0  0
   -8.0774    0.2166    0.0000 H   0  0  0  0  0  0  0  0  0  0  0  0
   -7.0669   -0.9877    0.0000 H   0  0  0  0  0  0  0  0  0  0  0  0
   -5.0713   -1.8554    0.0000 H   0  0  0  0  0  0  0  0  0  0  0  0
   -2.0826    2.4969    0.0000 H   0  0  0  0  0  0  0  0  0  0  0  0
   -3.3997    4.9173    0.0000 H   0  0  0  0  0  0  0  0  0  0  0  0
   -0.6350    2.5230    0.0000 H   0  0  0  0  0  0  0  0  0  0  0  0
   -2.2203    2.9183    0.0000 H   0  0  0  0  0  0  0  0  0  0  0  0
    0.6090    1.8290    0.0000 H   0  0  0  0  0  0  0  0  0  0  0  0
    1.8302    1.1491    0.0000 H   0  0  0  0  0  0  0  0  0  0  0  0
    1.8302   -1.1491    0.0000 H   0  0  0  0  0  0  0  0  0  0  0  0
    0.3170   -2.0490    0.0000 H   0  0  0  0  0  0  0  0  0  0  0  0
   -2.7741   -0.4210    0.0000 H   0  0  0  0  0  0  0  0  0  0  0  0
   -2.5181   -3.6595    0.0000 H   0  0  0  0  0  0  0  0  0  0  0  0
   -4.4655   -2.6886    0.0000 H   0  0  0  0  0  0  0  0  0  0  0  0
   -4.5311   -0.7500    0.0000 H   0  0  0  0  0  0  0  0  0  0  0  0
  1  2  1  0
  2  3  1  0
  3  4  1  0
  3  5  1  0
  5  6  1  0
  6  7  1  0
  7  8  1  0
  8  9  1  0
  9 10  1  0
 10 11  1  0
 11 12  1  0
 12 13  1  0
 11 14  1  0
 14 15  1  0
 14 16  1  0
  8 17  1  0
 17 18  1  0
 18 19  1  0
 19 20  1  0
 20 21  1  0
 21 22  1  0
 21 23  1  0
 23 24  1  0
 17 25  1  0
 25 26  1  0
 26 27  1  0
 27 28  1  0
 28 29  1  0
 29 30  1  0
 30 31  1  0
 31 32  1  0
 31 33  1  0
 30 34  1  0
 34 35  1  0
 35 36  1  0
 36 37  1  0
 37 38  1  0
 38 39  1  0
 39 40  1  0
  6  2  1  0
 25  8  1  0
 29 27  1  0
 40 30  1  0
 23 20  1  0
 27 25  1  0
 37 35  1  0
 40 38  1  0
  1 41  1  0
  1 42  1  0
  1 43  1  0
  3 44  1  0
  4 45  1  0
  4 46  1  0
  4 47  1  0
  5 48  1  0
  5 49  1  0
  6 50  1  0
  7 51  1  0
  7 52  1  0
  9 53  1  0
  9 54  1  0
 10 55  1  0
 10 56  1  0
 11 57  1  0
 12 58  1  0
 12 59  1  0
 14 60  1  0
 15 61  1  0
 15 62  1  0
 15 63  1  0
 16 64  1  0
 16 65  1  0
 16 66  1  0
 17 67  1  0
 19 68  1  0
 19 69  1  0
 20 70  1  0
 21 71  1  0
 22 72  1  0
 22 73  1  0
 22 74  1  0
 23 75  1  0
 24 76  1  0
 24 77  1  0
 24 78  1  0
 26 79  1  0
 26 80  1  0
 28 81  1  0
 28 82  1  0
 31 83  1  0
 32 84  1  0
 34 85  1  0
 34 86  1  0
 35 87  1  0
 36 88  1  0
 36 89  1  0
 37 90  1  0
 38 91  1  0
 39 92  1  0
 39 93  1  0
 40 94  1  0
M  END
$$$$
