
     RDKit          2D

 21 23  0  0  0  0  0  0  0  0999 V2000
   -8.9772   -0.9510    0.0000 O   0  0  0  0  0  0  0  0  0  0  0  0
   -7.6782   -1.7010    0.0000 O   0  0  0  0  0  0  0  0  0  0  0  0
   -6.3792   -0.9510    0.0000 C   0  0  0  0  0  0  0  0  0  0  0  0
   -5.0801   -0.2010    0.0000 C   0  0  0  0  0  0  0  0  0  0  0  0
   -3.7811    0.5490    0.0000 C   0  0  0  0  0  0  0  0  0  0  0  0
   -2.4821    1.2990    0.0000 C   0  0  0  0  0  0  0  0  0  0  0  0
   -1.1830    2.0490    0.0000 O   0  0  0  0  0  0  0  0  0  0  0  0
   -0.4330    0.7500    0.0000 C   0  0  0  0  0  0  0  0  0  0  0  0
    0.8660    0.0000    0.0000 O   0  0  0  0  0  0  0  0  0  0  0  0
   -0.4330   -0.7500    0.0000 C   0  0  0  0  0  0  0  0  0  0  0  0
   -1.7321    0.0000    0.0000 C   0  0  0  0  0  0  0  0  0  0  0  0
  -10.2763   -1.7010    0.0000 H   0  0  0  0  0  0  0  0  0  0  0  0
   -5.6292   -2.2500    0.0000 H   0  0  0  0  0  0  0  0  0  0  0  0
   -7.1292    0.3481    0.0000 H   0  0  0  0  0  0  0  0  0  0  0  0
   -4.3301   -1.5000    0.0000 H   0  0  0  0  0  0  0  0  0  0  0  0
   -5.8301    1.0981    0.0000 H   0  0  0  0  0  0  0  0  0  0  0  0
   -3.3064   -0.5694    0.0000 H   0  0  0  0  0  0  0  0  0  0  0  0
   -4.5311    1.8481    0.0000 H   0  0  0  0  0  0  0  0  0  0  0  0
   -3.2321    2.5981    0.0000 H   0  0  0  0  0  0  0  0  0  0  0  0
   -0.4330   -2.2500    0.0000 H   0  0  0  0  0  0  0  0  0  0  0  0
   -2.4801   -0.9575    0.0000 H   0  0  0  0  0  0  0  0  0  0  0  0
  1  2  1  0
  2  3  1  0
  3  4  1  0
  4  5  1  0
  5  6  1  0
  6  7  1  0
  7  8  1  0
  8  9  1  0
  9 10  1  0
 10 11  1  0
 11  6  1  0
 10  8  1  0
 11  8  1  0
  1 12  1  0
  3 13  1  0
  3 14  1  0
  4 15  1  0
  4 16  1  0
  5 17  1  0
  5 18  1  0
  6 19  1  0
 10 20  1  0
 11 21  1  0
M  END
$$$$
