
     RDKit          2D

103110  0  0  0  0  0  0  0  0999 V2000
   -3.4330   -8.2500    0.0000 C   0  0  0  0  0  0  0  0  0  0  0  0
   -1.9330   -8.2500    0.0000 C   0  0  0  0  0  0  0  0  0  0  0  0
   -1.1830   -9.5490    0.0000 C   0  0  0  0  0  0  0  0  0  0  0  0
   -0.4330  -10.8481    0.0000 C   0  0  0  0  0  0  0  0  0  0  0  0
    0.1160   -8.7990    0.0000 O   0  0  0  0  0  0  0  0  0  0  0  0
    0.1160   -7.2990    0.0000 C   0  0  0  0  0  0  0  0  0  0  0  0
    0.1160   -5.7990    0.0000 C   0  0  0  0  0  0  0  0  0  0  0  0
    0.1160   -4.2990    0.0000 C   0  0  0  0  0  0  0  0  0  0  0  0
    0.1160   -2.7990    0.0000 S   0  0  0  0  0  0  0  0  0  0  0  0
   -1.1830   -2.0490    0.0000 C   0  0  0  0  0  0  0  0  0  0  0  0
   -2.4821   -1.2990    0.0000 C   0  0  0  0  0  0  0  0  0  0  0  0
   -2.4821    0.2010    0.0000 C   0  0  0  0  0  0  0  0  0  0  0  0
   -0.5215    0.0776    0.0000 C   0  0  0  0  0  0  0  0  0  0  0  0
   -1.5822    1.1382    0.0000 C   0  0  0  0  0  0  0  0  0  0  0  0
   -3.0311    0.7500    0.0000 C   0  0  0  0  0  0  0  0  0  0  0  0
   -3.4193    2.1989    0.0000 C   0  0  0  0  0  0  0  0  0  0  0  0
   -3.8075    3.6478    0.0000 C   0  0  0  0  0  0  0  0  0  0  0  0
   -4.1958    5.0967    0.0000 O   0  0  0  0  0  0  0  0  0  0  0  0
   -2.3221    3.8565    0.0000 Cl  0  0  0  0  0  0  0  0  0  0  0  0
   -4.8682    1.8107    0.0000 C   0  0  0  0  0  0  0  0  0  0  0  0
   -6.3625    1.9414    0.0000 C   0  0  0  0  0  0  0  0  0  0  0  0
   -6.7507    0.4925    0.0000 C   0  0  0  0  0  0  0  0  0  0  0  0
   -5.5021    3.1701    0.0000 C   0  0  0  0  0  0  0  0  0  0  0  0
   -6.5628    4.2308    0.0000 C   0  0  0  0  0  0  0  0  0  0  0  0
   -7.6235    5.2914    0.0000 C   0  0  0  0  0  0  0  0  0  0  0  0
   -7.2352    6.7403    0.0000 C   0  0  0  0  0  0  0  0  0  0  0  0
   -8.2959    7.8010    0.0000 C   0  0  0  0  0  0  0  0  0  0  0  0
   -8.9298    9.1605    0.0000 C   0  0  0  0  0  0  0  0  0  0  0  0
   -7.4355    9.0297    0.0000 C   0  0  0  0  0  0  0  0  0  0  0  0
   -7.0473   10.4786    0.0000 C   0  0  0  0  0  0  0  0  0  0  0  0
   -6.0761    8.3958    0.0000 C   0  0  0  0  0  0  0  0  0  0  0  0
   -4.2734    4.0305    0.0000 C   0  0  0  0  0  0  0  0  0  0  0  0
   -3.0447    4.8909    0.0000 C   0  0  0  0  0  0  0  0  0  0  0  0
   -5.1338    5.2592    0.0000 C   0  0  0  0  0  0  0  0  0  0  0  0
   -5.9941    6.4879    0.0000 C   0  0  0  0  0  0  0  0  0  0  0  0
   -3.7811   -0.5490    0.0000 C   0  0  0  0  0  0  0  0  0  0  0  0
   -4.5311   -1.8481    0.0000 O   0  0  0  0  0  0  0  0  0  0  0  0
   -1.7321    0.0000    0.0000 C   0  0  0  0  0  0  0  0  0  0  0  0
   -0.4330    0.7500    0.0000 C   0  0  0  0  0  0  0  0  0  0  0  0
    0.8660    0.0000    0.0000 C   0  0  0  0  0  0  0  0  0  0  0  0
    1.8302    1.1491    0.0000 C   0  0  0  0  0  0  0  0  0  0  0  0
    2.7944    2.2981    0.0000 C   0  0  0  0  0  0  0  0  0  0  0  0
    3.7586    3.4472    0.0000 C   0  0  0  0  0  0  0  0  0  0  0  0
   -0.4330   -0.7500    0.0000 C   0  0  0  0  0  0  0  0  0  0  0  0
   -4.1830   -6.9510    0.0000 H   0  0  0  0  0  0  0  0  0  0  0  0
   -4.1830   -9.5490    0.0000 H   0  0  0  0  0  0  0  0  0  0  0  0
   -1.3470   -6.8692    0.0000 H   0  0  0  0  0  0  0  0  0  0  0  0
   -2.4821  -10.2990    0.0000 H   0  0  0  0  0  0  0  0  0  0  0  0
    0.3170  -12.1471    0.0000 H   0  0  0  0  0  0  0  0  0  0  0  0
   -1.7321  -11.5981    0.0000 H   0  0  0  0  0  0  0  0  0  0  0  0
    0.8660  -10.0981    0.0000 H   0  0  0  0  0  0  0  0  0  0  0  0
    1.6160   -7.2990    0.0000 H   0  0  0  0  0  0  0  0  0  0  0  0
   -1.3728   -7.1162    0.0000 H   0  0  0  0  0  0  0  0  0  0  0  0
    1.6160   -5.7990    0.0000 H   0  0  0  0  0  0  0  0  0  0  0  0
   -1.3840   -5.7990    0.0000 H   0  0  0  0  0  0  0  0  0  0  0  0
   -1.3840   -4.2990    0.0000 H   0  0  0  0  0  0  0  0  0  0  0  0
    1.6160   -4.2990    0.0000 H   0  0  0  0  0  0  0  0  0  0  0  0
   -1.9330   -3.3481    0.0000 H   0  0  0  0  0  0  0  0  0  0  0  0
   -3.7678    0.9734    0.0000 H   0  0  0  0  0  0  0  0  0  0  0  0
    0.1826    1.4020    0.0000 H   0  0  0  0  0  0  0  0  0  0  0  0
    0.6441   -0.8665    0.0000 H   0  0  0  0  0  0  0  0  0  0  0  0
   -2.0457    2.5648    0.0000 H   0  0  0  0  0  0  0  0  0  0  0  0
   -0.3535    1.9986    0.0000 H   0  0  0  0  0  0  0  0  0  0  0  0
   -2.0286    2.7608    0.0000 H   0  0  0  0  0  0  0  0  0  0  0  0
   -5.3073    3.6217    0.0000 H   0  0  0  0  0  0  0  0  0  0  0  0
   -3.1351    6.1573    0.0000 H   0  0  0  0  0  0  0  0  0  0  0  0
   -4.7375    0.3164    0.0000 H   0  0  0  0  0  0  0  0  0  0  0  0
   -7.7891    2.4049    0.0000 H   0  0  0  0  0  0  0  0  0  0  0  0
   -7.1390   -0.9564    0.0000 H   0  0  0  0  0  0  0  0  0  0  0  0
   -8.1996    0.8807    0.0000 H   0  0  0  0  0  0  0  0  0  0  0  0
   -5.3018    0.1043    0.0000 H   0  0  0  0  0  0  0  0  0  0  0  0
   -7.7448    3.3073    0.0000 H   0  0  0  0  0  0  0  0  0  0  0  0
   -5.7903    5.5166    0.0000 H   0  0  0  0  0  0  0  0  0  0  0  0
   -9.0723    4.9032    0.0000 H   0  0  0  0  0  0  0  0  0  0  0  0
   -5.9233    7.4676    0.0000 H   0  0  0  0  0  0  0  0  0  0  0  0
   -9.5246    6.9406    0.0000 H   0  0  0  0  0  0  0  0  0  0  0  0
  -10.3787    8.7722    0.0000 H   0  0  0  0  0  0  0  0  0  0  0  0
   -9.2417   10.6277    0.0000 H   0  0  0  0  0  0  0  0  0  0  0  0
   -6.6591   11.9275    0.0000 H   0  0  0  0  0  0  0  0  0  0  0  0
   -5.5619   10.2699    0.0000 H   0  0  0  0  0  0  0  0  0  0  0  0
   -8.4381   11.0406    0.0000 H   0  0  0  0  0  0  0  0  0  0  0  0
   -4.6495    7.9323    0.0000 H   0  0  0  0  0  0  0  0  0  0  0  0
   -5.2811    9.6678    0.0000 H   0  0  0  0  0  0  0  0  0  0  0  0
   -6.5395    6.9692    0.0000 H   0  0  0  0  0  0  0  0  0  0  0  0
   -3.1413    3.0465    0.0000 H   0  0  0  0  0  0  0  0  0  0  0  0
   -1.8159    5.7512    0.0000 H   0  0  0  0  0  0  0  0  0  0  0  0
   -3.5822    6.2913    0.0000 H   0  0  0  0  0  0  0  0  0  0  0  0
   -2.0410    3.7762    0.0000 H   0  0  0  0  0  0  0  0  0  0  0  0
   -4.1497    6.3913    0.0000 H   0  0  0  0  0  0  0  0  0  0  0  0
   -6.5342    4.7217    0.0000 H   0  0  0  0  0  0  0  0  0  0  0  0
   -6.9979    7.6026    0.0000 H   0  0  0  0  0  0  0  0  0  0  0  0
   -4.6697    7.1921    0.0000 H   0  0  0  0  0  0  0  0  0  0  0  0
   -7.3945    5.9505    0.0000 H   0  0  0  0  0  0  0  0  0  0  0  0
   -5.0801    0.2010    0.0000 H   0  0  0  0  0  0  0  0  0  0  0  0
   -6.0311   -1.8481    0.0000 H   0  0  0  0  0  0  0  0  0  0  0  0
    1.8302   -1.1491    0.0000 H   0  0  0  0  0  0  0  0  0  0  0  0
    2.9793    0.1849    0.0000 H   0  0  0  0  0  0  0  0  0  0  0  0
    0.8072    2.2461    0.0000 H   0  0  0  0  0  0  0  0  0  0  0  0
    3.9435    1.3340    0.0000 H   0  0  0  0  0  0  0  0  0  0  0  0
    1.6453    3.2623    0.0000 H   0  0  0  0  0  0  0  0  0  0  0  0
    4.7228    4.5963    0.0000 H   0  0  0  0  0  0  0  0  0  0  0  0
    2.6095    4.4114    0.0000 H   0  0  0  0  0  0  0  0  0  0  0  0
    4.9076    2.4830    0.0000 H   0  0  0  0  0  0  0  0  0  0  0  0
  1  2  2  3
  2  3  1  0
  3  4  1  0
  3  5  1  0
  5  6  1  0
  6  7  1  0
  7  8  1  0
  8  9  1  0
  9 10  1  0
 10 11  1  0
 11 12  1  0
 12 13  1  0
 13 14  1  0
 15 14  1  6
 15 16  1  0
 16 17  1  0
 17 18  1  0
 17 19  1  0
 16 20  1  0
 20 21  1  0
 21 22  1  0
 21 23  1  0
 23 24  1  1
 24 25  1  0
 25 26  2  3
 26 27  1  0
 27 28  1  0
 28 29  1  0
 29 30  1  0
 29 31  1  0
 23 32  1  0
 32 33  1  0
 32 34  1  0
 34 35  1  0
 15 36  1  0
 36 37  1  0
 38 15  1  1
 39 38  1  1
 39 40  1  0
 40 41  1  0
 41 42  1  0
 42 43  1  0
 40 44  1  0
 44 10  1  0
 36 11  1  0
 44 38  1  0
 11 38  1  1
 44 39  1  1
 39 12  1  0
 23 20  1  0
 29 27  1  0
  1 45  1  0
  1 46  1  0
  2 47  1  0
  3 48  1  6
  4 49  1  0
  4 50  1  0
  4 51  1  0
  6 52  1  0
  6 53  1  0
  7 54  1  0
  7 55  1  0
  8 56  1  0
  8 57  1  0
 10 58  1  6
 12 59  1  1
 13 60  1  0
 13 61  1  0
 14 62  1  0
 14 63  1  0
 16 64  1  1
 17 65  1  1
 18 66  1  0
 20 67  1  6
 21 68  1  6
 22 69  1  0
 22 70  1  0
 22 71  1  0
 24 72  1  0
 24 73  1  0
 25 74  1  0
 26 75  1  0
 27 76  1  1
 28 77  1  0
 28 78  1  0
 30 79  1  0
 30 80  1  0
 30 81  1  0
 31 82  1  0
 31 83  1  0
 31 84  1  0
 32 85  1  1
 33 86  1  0
 33 87  1  0
 33 88  1  0
 34 89  1  0
 34 90  1  0
 35 91  1  0
 35 92  1  0
 35 93  1  0
 36 94  1  1
 37 95  1  0
 40 96  1  6
 41 97  1  0
 41 98  1  0
 42 99  1  0
 42100  1  0
 43101  1  0
 43102  1  0
 43103  1  0
M  END
$$$$
