
     RDKit          2D

112117  0  0  0  0  0  0  0  0999 V2000
  -10.1439    1.1366    0.0000 C   0  0  0  0  0  0  0  0  0  0  0  0
   -9.5338    2.5069    0.0000 C   0  0  0  0  0  0  0  0  0  0  0  0
   -8.9237    3.8772    0.0000 C   0  0  0  0  0  0  0  0  0  0  0  0
   -8.1635    1.8968    0.0000 C   0  0  0  0  0  0  0  0  0  0  0  0
   -6.7932    1.2867    0.0000 C   0  0  0  0  0  0  0  0  0  0  0  0
   -5.4229    0.6766    0.0000 N   0  0  0  0  0  0  0  0  0  0  0  0
   -4.2093    1.5583    0.0000 C   0  0  0  0  0  0  0  0  0  0  0  0
   -3.7458    2.9848    0.0000 C   0  0  0  0  0  0  0  0  0  0  0  0
   -2.5323    3.8665    0.0000 O   0  0  0  0  0  0  0  0  0  0  0  0
   -1.0323    3.8665    0.0000 C   0  0  0  0  0  0  0  0  0  0  0  0
    0.1812    2.9848    0.0000 C   0  0  0  0  0  0  0  0  0  0  0  0
    0.3943    1.2135    0.0000 C   0  0  0  0  0  0  0  0  0  0  0  0
    1.2760    0.0000    0.0000 C   0  0  0  0  0  0  0  0  0  0  0  0
    0.3943   -1.2135    0.0000 C   0  0  0  0  0  0  0  0  0  0  0  0
   -1.0323   -0.7500    0.0000 C   0  0  0  0  0  0  0  0  0  0  0  0
   -1.0323    0.7500    0.0000 C   0  0  0  0  0  0  0  0  0  0  0  0
   -2.5323   -0.7500    0.0000 C   0  0  0  0  0  0  0  0  0  0  0  0
   -2.0688   -2.1766    0.0000 C   0  0  0  0  0  0  0  0  0  0  0  0
   -1.6052   -3.6032    0.0000 C   0  0  0  0  0  0  0  0  0  0  0  0
   -1.1417   -5.0298    0.0000 C   0  0  0  0  0  0  0  0  0  0  0  0
   -0.6782   -6.4563    0.0000 N   0  0  0  0  0  0  0  0  0  0  0  0
   -3.0318   -4.0667    0.0000 C   0  0  0  0  0  0  0  0  0  0  0  0
   -2.5683   -5.4933    0.0000 Br  0  0  0  0  0  0  0  0  0  0  0  0
   -4.4584   -4.5302    0.0000 C   0  0  0  0  0  0  0  0  0  0  0  0
   -5.8850   -4.9937    0.0000 C   0  0  0  0  0  0  0  0  0  0  0  0
   -5.1808   -6.3182    0.0000 C   0  0  0  0  0  0  0  0  0  0  0  0
   -4.0661   -7.3219    0.0000 C   0  0  0  0  0  0  0  0  0  0  0  0
   -2.9513   -8.3256    0.0000 C   0  0  0  0  0  0  0  0  0  0  0  0
   -1.8366   -9.3293    0.0000 C   0  0  0  0  0  0  0  0  0  0  0  0
   -0.3968   -9.7499    0.0000 C   0  0  0  0  0  0  0  0  0  0  0  0
    0.1720  -11.1379    0.0000 N   0  0  0  0  0  0  0  0  0  0  0  0
   -0.5585  -12.4480    0.0000 C   0  0  0  0  0  0  0  0  0  0  0  0
   -2.0382  -12.6937    0.0000 C   0  0  0  0  0  0  0  0  0  0  0  0
   -3.1529  -11.6900    0.0000 C   0  0  0  0  0  0  0  0  0  0  0  0
   -4.5409  -12.2588    0.0000 Cl  0  0  0  0  0  0  0  0  0  0  0  0
   -3.0632  -10.1927    0.0000 C   0  0  0  0  0  0  0  0  0  0  0  0
   -5.9757   -7.5902    0.0000 C   0  0  0  0  0  0  0  0  0  0  0  0
   -7.4747   -7.5379    0.0000 C   0  0  0  0  0  0  0  0  0  0  0  0
   -8.7992   -8.2421    0.0000 C   0  0  0  0  0  0  0  0  0  0  0  0
   -9.5034   -6.9177    0.0000 C   0  0  0  0  0  0  0  0  0  0  0  0
   -8.8832   -4.8890    0.0000 C   0  0  0  0  0  0  0  0  0  0  0  0
   -7.3841   -4.9414    0.0000 C   0  0  0  0  0  0  0  0  0  0  0  0
   -8.0883   -3.6170    0.0000 C   0  0  0  0  0  0  0  0  0  0  0  0
   -8.1790   -6.2135    0.0000 C   0  0  0  0  0  0  0  0  0  0  0  0
   -3.7458    0.1317    0.0000 C   0  0  0  0  0  0  0  0  0  0  0  0
  -10.7540   -0.2337    0.0000 H   0  0  0  0  0  0  0  0  0  0  0  0
  -11.5142    1.7467    0.0000 H   0  0  0  0  0  0  0  0  0  0  0  0
   -9.3847    0.6804    0.0000 H   0  0  0  0  0  0  0  0  0  0  0  0
  -10.9041    3.1170    0.0000 H   0  0  0  0  0  0  0  0  0  0  0  0
   -8.3136    5.2475    0.0000 H   0  0  0  0  0  0  0  0  0  0  0  0
  -10.2940    4.4873    0.0000 H   0  0  0  0  0  0  0  0  0  0  0  0
   -8.0767    3.6183    0.0000 H   0  0  0  0  0  0  0  0  0  0  0  0
   -7.7073    2.6560    0.0000 H   0  0  0  0  0  0  0  0  0  0  0  0
   -8.4224    1.0498    0.0000 H   0  0  0  0  0  0  0  0  0  0  0  0
   -6.3547    2.7212    0.0000 H   0  0  0  0  0  0  0  0  0  0  0  0
   -7.4033   -0.0836    0.0000 H   0  0  0  0  0  0  0  0  0  0  0  0
   -5.2661   -0.8152    0.0000 H   0  0  0  0  0  0  0  0  0  0  0  0
   -5.0940    2.2010    0.0000 H   0  0  0  0  0  0  0  0  0  0  0  0
   -4.8312    3.1181    0.0000 H   0  0  0  0  0  0  0  0  0  0  0  0
   -4.2093    4.4114    0.0000 H   0  0  0  0  0  0  0  0  0  0  0  0
   -1.4958    5.2931    0.0000 H   0  0  0  0  0  0  0  0  0  0  0  0
    0.0647    4.8896    0.0000 H   0  0  0  0  0  0  0  0  0  0  0  0
    0.8152    4.3443    0.0000 H   0  0  0  0  0  0  0  0  0  0  0  0
    1.6701    3.1677    0.0000 H   0  0  0  0  0  0  0  0  0  0  0  0
    0.6261    2.4062    0.0000 H   0  0  0  0  0  0  0  0  0  0  0  0
    2.3907    1.0037    0.0000 H   0  0  0  0  0  0  0  0  0  0  0  0
    2.3907   -1.0037    0.0000 H   0  0  0  0  0  0  0  0  0  0  0  0
    1.6933   -1.9635    0.0000 H   0  0  0  0  0  0  0  0  0  0  0  0
   -0.0442   -2.6480    0.0000 H   0  0  0  0  0  0  0  0  0  0  0  0
   -1.9964   -1.8991    0.0000 H   0  0  0  0  0  0  0  0  0  0  0  0
   -2.5241    0.5932    0.0000 H   0  0  0  0  0  0  0  0  0  0  0  0
   -1.3442    2.2172    0.0000 H   0  0  0  0  0  0  0  0  0  0  0  0
   -3.6293   -1.7730    0.0000 H   0  0  0  0  0  0  0  0  0  0  0  0
   -3.5412   -2.4628    0.0000 H   0  0  0  0  0  0  0  0  0  0  0  0
   -0.6422   -1.7131    0.0000 H   0  0  0  0  0  0  0  0  0  0  0  0
   -0.1328   -3.3170    0.0000 H   0  0  0  0  0  0  0  0  0  0  0  0
   -2.5683   -5.4933    0.0000 H   0  0  0  0  0  0  0  0  0  0  0  0
    0.2849   -4.5662    0.0000 H   0  0  0  0  0  0  0  0  0  0  0  0
    0.7890   -6.7682    0.0000 H   0  0  0  0  0  0  0  0  0  0  0  0
   -1.6819   -7.5711    0.0000 H   0  0  0  0  0  0  0  0  0  0  0  0
   -3.6658   -2.7073    0.0000 H   0  0  0  0  0  0  0  0  0  0  0  0
   -3.8244   -5.8897    0.0000 H   0  0  0  0  0  0  0  0  0  0  0  0
   -4.9219   -3.1036    0.0000 H   0  0  0  0  0  0  0  0  0  0  0  0
   -5.9111   -3.4940    0.0000 H   0  0  0  0  0  0  0  0  0  0  0  0
   -3.8950   -5.5456    0.0000 H   0  0  0  0  0  0  0  0  0  0  0  0
   -4.9264   -8.5506    0.0000 H   0  0  0  0  0  0  0  0  0  0  0  0
   -3.0624   -6.2071    0.0000 H   0  0  0  0  0  0  0  0  0  0  0  0
   -4.0834   -9.3096    0.0000 H   0  0  0  0  0  0  0  0  0  0  0  0
   -2.0910   -7.0968    0.0000 H   0  0  0  0  0  0  0  0  0  0  0  0
   -1.1061   -8.0191    0.0000 H   0  0  0  0  0  0  0  0  0  0  0  0
   -0.1253   -8.2747    0.0000 H   0  0  0  0  0  0  0  0  0  0  0  0
    1.0829   -9.5042    0.0000 H   0  0  0  0  0  0  0  0  0  0  0  0
    1.6693  -11.2276    0.0000 H   0  0  0  0  0  0  0  0  0  0  0  0
    0.8813  -12.8686    0.0000 H   0  0  0  0  0  0  0  0  0  0  0  0
   -0.6482  -13.9453    0.0000 H   0  0  0  0  0  0  0  0  0  0  0  0
   -2.4588  -14.1335    0.0000 H   0  0  0  0  0  0  0  0  0  0  0  0
   -4.5429  -10.4384    0.0000 H   0  0  0  0  0  0  0  0  0  0  0  0
   -3.7970   -8.8844    0.0000 H   0  0  0  0  0  0  0  0  0  0  0  0
   -6.1064   -9.0845    0.0000 H   0  0  0  0  0  0  0  0  0  0  0  0
   -4.6638   -8.3175    0.0000 H   0  0  0  0  0  0  0  0  0  0  0  0
   -7.3180   -9.0297    0.0000 H   0  0  0  0  0  0  0  0  0  0  0  0
  -10.1236   -8.9463    0.0000 H   0  0  0  0  0  0  0  0  0  0  0  0
   -8.0950   -9.5665    0.0000 H   0  0  0  0  0  0  0  0  0  0  0  0
  -10.9378   -6.4791    0.0000 H   0  0  0  0  0  0  0  0  0  0  0  0
   -9.1951   -3.4218    0.0000 H   0  0  0  0  0  0  0  0  0  0  0  0
  -10.3822   -4.8367    0.0000 H   0  0  0  0  0  0  0  0  0  0  0  0
   -8.7925   -2.2926    0.0000 H   0  0  0  0  0  0  0  0  0  0  0  0
   -6.8596   -2.7566    0.0000 H   0  0  0  0  0  0  0  0  0  0  0  0
   -9.5437   -3.9798    0.0000 H   0  0  0  0  0  0  0  0  0  0  0  0
   -6.7445   -6.6520    0.0000 H   0  0  0  0  0  0  0  0  0  0  0  0
   -4.3798   -1.2278    0.0000 H   0  0  0  0  0  0  0  0  0  0  0  0
   -5.2012   -0.2313    0.0000 H   0  0  0  0  0  0  0  0  0  0  0  0
  1  2  1  0
  2  3  1  0
  2  4  1  0
  4  5  1  0
  5  6  1  0
  6  7  1  0
  7  8  1  0
  8  9  1  0
  9 10  1  0
 10 11  1  0
 11 12  1  0
 12 13  1  0
 13 14  1  0
 14 15  1  0
 15 16  1  0
 15 17  1  0
 17 18  1  0
 18 19  1  0
 19 20  1  0
 20 21  1  0
 19 22  1  0
 22 23  1  0
 22 24  1  0
 24 25  1  0
 25 26  1  0
 26 27  1  0
 27 28  1  0
 28 29  1  0
 29 30  1  0
 30 31  1  0
 31 32  1  0
 32 33  1  0
 33 34  2  0
 34 35  1  0
 34 36  1  0
 26 37  1  0
 37 38  1  0
 38 39  1  0
 39 40  1  0
 40 41  1  0
 41 42  1  0
 42 43  1  0
 42 44  1  0
 17 45  1  0
 45  7  1  0
 16 12  1  0
 42 25  1  0
 36 29  1  0
 44 38  1  0
 44 40  1  0
  1 46  1  0
  1 47  1  0
  1 48  1  0
  2 49  1  0
  3 50  1  0
  3 51  1  0
  3 52  1  0
  4 53  1  0
  4 54  1  0
  5 55  1  0
  5 56  1  0
  6 57  1  0
  7 58  1  0
  8 59  1  0
  8 60  1  0
 10 61  1  0
 10 62  1  0
 11 63  1  0
 11 64  1  0
 12 65  1  0
 13 66  1  0
 13 67  1  0
 14 68  1  0
 14 69  1  0
 15 70  1  0
 16 71  1  0
 16 72  1  0
 17 73  1  0
 18 74  1  0
 18 75  1  0
 19 76  1  0
 20 77  1  0
 20 78  1  0
 21 79  1  0
 21 80  1  0
 22 81  1  0
 24 82  1  0
 24 83  1  0
 25 84  1  0
 26 85  1  0
 27 86  1  0
 27 87  1  0
 28 88  1  0
 28 89  1  0
 29 90  1  0
 30 91  1  0
 30 92  1  0
 31 93  1  0
 32 94  1  0
 32 95  1  0
 33 96  1  0
 36 97  1  0
 36 98  1  0
 37 99  1  0
 37100  1  0
 38101  1  0
 39102  1  0
 39103  1  0
 40104  1  0
 41105  1  0
 41106  1  0
 43107  1  0
 43108  1  0
 43109  1  0
 44110  1  0
 45111  1  0
 45112  1  0
M  END
$$$$
