
     RDKit          2D

104110  0  0  0  0  0  0  0  0999 V2000
   -4.5295   15.4921    0.0000 C   0  0  0  0  0  0  0  0  0  0  0  0
   -4.8222   14.0209    0.0000 C   0  0  0  0  0  0  0  0  0  0  0  0
   -6.2426   13.5387    0.0000 C   0  0  0  0  0  0  0  0  0  0  0  0
   -7.6630   13.0566    0.0000 N   0  0  0  0  0  0  0  0  0  0  0  0
   -5.7604   12.1183    0.0000 N   0  0  0  0  0  0  0  0  0  0  0  0
   -4.2892   11.8257    0.0000 C   0  0  0  0  0  0  0  0  0  0  0  0
   -4.3219   10.3261    0.0000 O   0  0  0  0  0  0  0  0  0  0  0  0
   -3.7456   13.2237    0.0000 C   0  0  0  0  0  0  0  0  0  0  0  0
   -2.8067   12.0539    0.0000 C   0  0  0  0  0  0  0  0  0  0  0  0
   -2.3245   10.6335    0.0000 C   0  0  0  0  0  0  0  0  0  0  0  0
   -1.8424    9.2131    0.0000 C   0  0  0  0  0  0  0  0  0  0  0  0
   -1.3602    7.7927    0.0000 C   0  0  0  0  0  0  0  0  0  0  0  0
   -2.8570    7.8908    0.0000 C   0  0  0  0  0  0  0  0  0  0  0  0
   -4.2774    7.4086    0.0000 C   0  0  0  0  0  0  0  0  0  0  0  0
   -5.4051    6.4196    0.0000 C   0  0  0  0  0  0  0  0  0  0  0  0
   -6.5952    7.3328    0.0000 O   0  0  0  0  0  0  0  0  0  0  0  0
   -6.0686    5.0743    0.0000 C   0  0  0  0  0  0  0  0  0  0  0  0
   -6.1667    3.5775    0.0000 C   0  0  0  0  0  0  0  0  0  0  0  0
   -5.6845    2.1571    0.0000 C   0  0  0  0  0  0  0  0  0  0  0  0
   -4.6955    1.0294    0.0000 C   0  0  0  0  0  0  0  0  0  0  0  0
   -4.5974   -0.4674    0.0000 C   0  0  0  0  0  0  0  0  0  0  0  0
   -3.3502    0.3659    0.0000 C   0  0  0  0  0  0  0  0  0  0  0  0
   -1.8534    0.2678    0.0000 C   0  0  0  0  0  0  0  0  0  0  0  0
   -0.4330    0.7500    0.0000 C   0  0  0  0  0  0  0  0  0  0  0  0
    0.6947    1.7390    0.0000 C   0  0  0  0  0  0  0  0  0  0  0  0
    1.3582    3.0843    0.0000 C   0  0  0  0  0  0  0  0  0  0  0  0
    1.4563    4.5811    0.0000 C   0  0  0  0  0  0  0  0  0  0  0  0
    0.9741    6.0015    0.0000 C   0  0  0  0  0  0  0  0  0  0  0  0
    2.4709    5.9034    0.0000 C   0  0  0  0  0  0  0  0  0  0  0  0
    3.5987    6.8924    0.0000 C   0  0  0  0  0  0  0  0  0  0  0  0
    3.6968    8.3892    0.0000 C   0  0  0  0  0  0  0  0  0  0  0  0
    2.7078    9.5170    0.0000 C   0  0  0  0  0  0  0  0  0  0  0  0
    2.0443   10.8623    0.0000 C   0  0  0  0  0  0  0  0  0  0  0  0
    1.2110    9.6151    0.0000 C   0  0  0  0  0  0  0  0  0  0  0  0
    0.0832    8.6261    0.0000 C   0  0  0  0  0  0  0  0  0  0  0  0
   -1.2621    9.2895    0.0000 C   0  0  0  0  0  0  0  0  0  0  0  0
   -2.6074    9.9529    0.0000 C   0  0  0  0  0  0  0  0  0  0  0  0
   -3.9527   10.6164    0.0000 C   0  0  0  0  0  0  0  0  0  0  0  0
   -5.2980   11.2798    0.0000 C   0  0  0  0  0  0  0  0  0  0  0  0
   -0.0149    7.1293    0.0000 C   0  0  0  0  0  0  0  0  0  0  0  0
    1.5800    8.5280    0.0000 P   0  0  0  0  0  0  0  0  0  0  0  0
    2.0622    7.1076    0.0000 F   0  0  0  0  0  0  0  0  0  0  0  0
    0.8660    0.0000    0.0000 C   0  0  0  0  0  0  0  0  0  0  0  0
   -0.4330   -0.7500    0.0000 O   0  0  0  0  0  0  0  0  0  0  0  0
   -3.1091   15.9742    0.0000 H   0  0  0  0  0  0  0  0  0  0  0  0
   -5.6573   16.4811    0.0000 H   0  0  0  0  0  0  0  0  0  0  0  0
   -3.4886   13.3342    0.0000 H   0  0  0  0  0  0  0  0  0  0  0  0
   -6.7247   14.9591    0.0000 H   0  0  0  0  0  0  0  0  0  0  0  0
   -8.7907   14.0456    0.0000 H   0  0  0  0  0  0  0  0  0  0  0  0
   -7.9556   11.5854    0.0000 H   0  0  0  0  0  0  0  0  0  0  0  0
   -6.7494   10.9906    0.0000 H   0  0  0  0  0  0  0  0  0  0  0  0
   -5.5393    9.4497    0.0000 H   0  0  0  0  0  0  0  0  0  0  0  0
   -2.7565   14.3515    0.0000 H   0  0  0  0  0  0  0  0  0  0  0  0
   -4.8015   14.2891    0.0000 H   0  0  0  0  0  0  0  0  0  0  0  0
   -1.4916   12.7754    0.0000 H   0  0  0  0  0  0  0  0  0  0  0  0
   -3.7449   10.1513    0.0000 H   0  0  0  0  0  0  0  0  0  0  0  0
   -0.9735   11.2852    0.0000 H   0  0  0  0  0  0  0  0  0  0  0  0
   -0.4220    9.6953    0.0000 H   0  0  0  0  0  0  0  0  0  0  0  0
   -3.2628    8.7309    0.0000 H   0  0  0  0  0  0  0  0  0  0  0  0
   -0.6619    9.1202    0.0000 H   0  0  0  0  0  0  0  0  0  0  0  0
   -4.0895    8.7457    0.0000 H   0  0  0  0  0  0  0  0  0  0  0  0
   -2.5388    9.3567    0.0000 H   0  0  0  0  0  0  0  0  0  0  0  0
   -5.6227    8.0721    0.0000 H   0  0  0  0  0  0  0  0  0  0  0  0
   -4.5444    8.8847    0.0000 H   0  0  0  0  0  0  0  0  0  0  0  0
   -7.5372    4.7689    0.0000 H   0  0  0  0  0  0  0  0  0  0  0  0
   -7.0576    6.2021    0.0000 H   0  0  0  0  0  0  0  0  0  0  0  0
   -7.4066    2.7334    0.0000 H   0  0  0  0  0  0  0  0  0  0  0  0
   -7.5828    4.0720    0.0000 H   0  0  0  0  0  0  0  0  0  0  0  0
   -6.5070    0.9027    0.0000 H   0  0  0  0  0  0  0  0  0  0  0  0
   -7.1821    2.0721    0.0000 H   0  0  0  0  0  0  0  0  0  0  0  0
   -6.0010    0.2907    0.0000 H   0  0  0  0  0  0  0  0  0  0  0  0
   -6.0544   -0.8239    0.0000 H   0  0  0  0  0  0  0  0  0  0  0  0
   -3.9933   -1.8404    0.0000 H   0  0  0  0  0  0  0  0  0  0  0  0
   -3.1415   -1.1195    0.0000 H   0  0  0  0  0  0  0  0  0  0  0  0
   -1.1667   -1.0657    0.0000 H   0  0  0  0  0  0  0  0  0  0  0  0
   -2.3479   -1.1483    0.0000 H   0  0  0  0  0  0  0  0  0  0  0  0
    2.1915    1.6409    0.0000 H   0  0  0  0  0  0  0  0  0  0  0  0
    1.5063    0.4775    0.0000 H   0  0  0  0  0  0  0  0  0  0  0  0
    2.8268    3.3898    0.0000 H   0  0  0  0  0  0  0  0  0  0  0  0
    2.4773    2.0855    0.0000 H   0  0  0  0  0  0  0  0  0  0  0  0
    2.8636    5.1002    0.0000 H   0  0  0  0  0  0  0  0  0  0  0  0
    2.8724    4.0866    0.0000 H   0  0  0  0  0  0  0  0  0  0  0  0
    2.1642    5.0884    0.0000 H   0  0  0  0  0  0  0  0  0  0  0  0
    3.6072    4.9242    0.0000 H   0  0  0  0  0  0  0  0  0  0  0  0
    2.5299    4.4046    0.0000 H   0  0  0  0  0  0  0  0  0  0  0  0
    5.0946    7.0035    0.0000 H   0  0  0  0  0  0  0  0  0  0  0  0
    4.4211    5.6380    0.0000 H   0  0  0  0  0  0  0  0  0  0  0  0
    4.5301    9.6364    0.0000 H   0  0  0  0  0  0  0  0  0  0  0  0
    5.1654    8.0838    0.0000 H   0  0  0  0  0  0  0  0  0  0  0  0
    3.2540   11.7492    0.0000 H   0  0  0  0  0  0  0  0  0  0  0  0
    0.9608   11.8996    0.0000 H   0  0  0  0  0  0  0  0  0  0  0  0
    0.2122   10.7342    0.0000 H   0  0  0  0  0  0  0  0  0  0  0  0
   -0.5987   10.6348    0.0000 H   0  0  0  0  0  0  0  0  0  0  0  0
   -2.2313    8.1447    0.0000 H   0  0  0  0  0  0  0  0  0  0  0  0
   -2.2892   11.4188    0.0000 H   0  0  0  0  0  0  0  0  0  0  0  0
   -3.5767    8.8081    0.0000 H   0  0  0  0  0  0  0  0  0  0  0  0
   -3.6345   12.0822    0.0000 H   0  0  0  0  0  0  0  0  0  0  0  0
   -4.9220    9.4716    0.0000 H   0  0  0  0  0  0  0  0  0  0  0  0
   -6.7639   11.5980    0.0000 H   0  0  0  0  0  0  0  0  0  0  0  0
   -6.1205   10.0254    0.0000 H   0  0  0  0  0  0  0  0  0  0  0  0
   -4.6346   12.6251    0.0000 H   0  0  0  0  0  0  0  0  0  0  0  0
   -0.6010    8.5100    0.0000 H   0  0  0  0  0  0  0  0  0  0  0  0
    1.9631    1.0230    0.0000 H   0  0  0  0  0  0  0  0  0  0  0  0
    1.8302   -1.1491    0.0000 H   0  0  0  0  0  0  0  0  0  0  0  0
  1  2  2  3
  2  3  1  0
  3  4  1  0
  3  5  1  0
  5  6  1  0
  6  7  1  0
  6  8  1  0
  8  9  1  0
  9 10  1  0
 10 11  1  0
 11 12  1  0
 12 13  1  0
 13 14  1  0
 14 15  1  0
 15 16  2  0
 15 17  1  0
 17 18  1  0
 18 19  1  0
 19 20  1  0
 20 21  1  0
 21 22  1  0
 22 23  1  0
 23 24  1  0
 24 25  1  0
 25 26  1  0
 26 27  1  0
 27 28  1  0
 28 29  1  0
 29 30  1  0
 30 31  1  0
 31 32  1  0
 32 33  1  0
 33 34  1  0
 34 35  1  0
 35 36  1  0
 36 37  1  0
 37 38  1  0
 38 39  1  0
 35 40  1  0
 35 41  1  0
 41 42  1  0
 24 43  1  0
 43 44  1  0
  9  6  1  0
 40 12  1  0
 22 20  1  0
 44 24  1  0
 40 28  1  0
 34 32  1  0
 41 32  1  0
  1 45  1  0
  1 46  1  0
  2 47  1  0
  3 48  1  0
  4 49  1  0
  4 50  1  0
  5 51  1  0
  7 52  1  0
  8 53  1  0
  8 54  1  0
  9 55  1  0
 10 56  1  0
 10 57  1  0
 11 58  1  0
 11 59  1  0
 12 60  1  0
 13 61  1  0
 13 62  1  0
 14 63  1  0
 14 64  1  0
 17 65  1  0
 17 66  1  0
 18 67  1  0
 18 68  1  0
 19 69  1  0
 19 70  1  0
 20 71  1  0
 21 72  1  0
 21 73  1  0
 22 74  1  0
 23 75  1  0
 23 76  1  0
 25 77  1  0
 25 78  1  0
 26 79  1  0
 26 80  1  0
 27 81  1  0
 27 82  1  0
 28 83  1  0
 29 84  1  0
 29 85  1  0
 30 86  1  0
 30 87  1  0
 31 88  1  0
 31 89  1  0
 33 90  1  0
 33 91  1  0
 34 92  1  0
 36 93  1  0
 36 94  1  0
 37 95  1  0
 37 96  1  0
 38 97  1  0
 38 98  1  0
 39 99  1  0
 39100  1  0
 39101  1  0
 40102  1  0
 43103  1  0
 43104  1  0
M  END
$$$$
