
     RDKit          2D

 31 31  0  0  0  0  0  0  0  0999 V2000
    1.8302    1.1491    0.0000 C   0  0  0  0  0  0  0  0  0  0  0  0
    0.8660   -0.0000    0.0000 C   0  0  0  0  0  0  0  0  0  0  0  0
    1.8302   -1.1491    0.0000 C   0  0  0  0  0  0  0  0  0  0  0  0
    2.7944   -2.2981    0.0000 C   0  0  0  0  0  0  0  0  0  0  0  0
    3.7586   -3.4472    0.0000 C   0  0  0  0  0  0  0  0  0  0  0  0
    4.7228   -4.5963    0.0000 C   0  0  0  0  0  0  0  0  0  0  0  0
    4.2097   -6.0058    0.0000 O   0  0  0  0  0  0  0  0  0  0  0  0
    6.2000   -4.3358    0.0000 C   0  0  0  0  0  0  0  0  0  0  0  0
    7.6772   -4.0753    0.0000 N   0  0  0  0  0  2  0  0  0  0  0  0
    6.4604   -5.8130    0.0000 O   0  0  0  0  0  1  0  0  0  0  0  0
   -0.4330    0.7500    0.0000 N   0  0  0  0  0  0  0  0  0  0  0  0
   -0.4330   -0.7500    0.0000 C   0  0  0  0  0  0  0  0  0  0  0  0
    0.0800   -2.1595    0.0000 C   0  0  0  0  0  0  0  0  0  0  0  0
    0.5930   -3.5691    0.0000 N   0  0  0  0  0  0  0  0  0  0  0  0
   -0.3711   -4.7181    0.0000 I   0  0  0  0  0  0  0  0  0  0  0  0
    2.7944    2.2981    0.0000 H   0  0  0  0  0  0  0  0  0  0  0  0
    2.8492    0.4874    0.0000 H   0  0  0  0  0  0  0  0  0  0  0  0
    0.6811    2.1132    0.0000 H   0  0  0  0  0  0  0  0  0  0  0  0
    1.3617   -1.7940    0.0000 H   0  0  0  0  0  0  0  0  0  0  0  0
    2.8492   -0.4874    0.0000 H   0  0  0  0  0  0  0  0  0  0  0  0
    3.9435   -1.3340    0.0000 H   0  0  0  0  0  0  0  0  0  0  0  0
    1.7714   -3.3952    0.0000 H   0  0  0  0  0  0  0  0  0  0  0  0
    4.9076   -2.4830    0.0000 H   0  0  0  0  0  0  0  0  0  0  0  0
    2.7356   -4.5443    0.0000 H   0  0  0  0  0  0  0  0  0  0  0  0
    5.9395   -2.8586    0.0000 H   0  0  0  0  0  0  0  0  0  0  0  0
    8.1902   -2.6658    0.0000 H   0  0  0  0  0  0  0  0  0  0  0  0
   -1.1830    2.0490    0.0000 H   0  0  0  0  0  0  0  0  0  0  0  0
   -1.9102   -1.0105    0.0000 H   0  0  0  0  0  0  0  0  0  0  0  0
   -1.3295   -2.6726    0.0000 H   0  0  0  0  0  0  0  0  0  0  0  0
    0.8728   -2.0763    0.0000 H   0  0  0  0  0  0  0  0  0  0  0  0
    1.9633   -4.1793    0.0000 H   0  0  0  0  0  0  0  0  0  0  0  0
  1  2  1  0
  2  3  1  0
  3  4  1  0
  4  5  1  0
  5  6  1  0
  6  7  2  0
  6  8  1  0
  8  9  1  0
  8 10  1  0
  2 11  1  0
 11 12  1  0
 12 13  1  0
 13 14  1  0
 14 15  1  0
 12  2  1  0
  1 16  1  0
  1 17  1  0
  1 18  1  0
  3 19  1  0
  3 20  1  0
  4 21  1  0
  4 22  1  0
  5 23  1  0
  5 24  1  0
  8 25  1  0
  9 26  1  0
 11 27  1  0
 12 28  1  0
 13 29  1  0
 13 30  1  0
 14 31  1  0
M  RAD  2   9   2  10   2
M  END
$$$$
