
     RDKit          2D

111113  0  0  0  0  0  0  0  0999 V2000
   -9.1252   11.0483    0.0000 C   0  0  0  0  0  0  0  0  0  0  0  0
   -7.6398   11.2571    0.0000 C   0  0  0  0  0  0  0  0  0  0  0  0
   -7.0779   12.6479    0.0000 C   0  0  0  0  0  0  0  0  0  0  0  0
   -6.5160   14.0386    0.0000 N   0  0  0  0  0  0  0  0  0  0  0  0
   -5.6871   12.0859    0.0000 P   0  0  0  0  0  0  0  0  0  0  0  0
   -4.2017   12.2947    0.0000 C   0  0  0  0  0  0  0  0  0  0  0  0
   -4.7636   10.9039    0.0000 C   0  0  0  0  0  0  0  0  0  0  0  0
   -5.7673    9.7892    0.0000 C   0  0  0  0  0  0  0  0  0  0  0  0
   -6.7710    8.6745    0.0000 C   0  0  0  0  0  0  0  0  0  0  0  0
   -6.3075    7.2479    0.0000 C   0  0  0  0  0  0  0  0  0  0  0  0
   -7.3112    6.1332    0.0000 C   0  0  0  0  0  0  0  0  0  0  0  0
   -8.3149    5.0185    0.0000 C   0  0  0  0  0  0  0  0  0  0  0  0
   -9.3186    3.9038    0.0000 C   0  0  0  0  0  0  0  0  0  0  0  0
  -10.3223    2.7890    0.0000 N   0  0  0  0  0  0  0  0  0  0  0  0
   -7.2001    4.0148    0.0000 C   0  0  0  0  0  0  0  0  0  0  0  0
   -6.0854    3.0111    0.0000 C   0  0  0  0  0  0  0  0  0  0  0  0
   -4.9707    2.0074    0.0000 C   0  0  0  0  0  0  0  0  0  0  0  0
   -3.8560    1.0037    0.0000 C   0  0  0  0  0  0  0  0  0  0  0  0
   -2.7413    0.0000    0.0000 C   0  0  0  0  0  0  0  0  0  0  0  0
   -1.8596   -1.2135    0.0000 C   0  0  0  0  0  0  0  0  0  0  0  0
   -0.4330   -0.7500    0.0000 C   0  0  0  0  0  0  0  0  0  0  0  0
   -0.4330    0.7500    0.0000 C   0  0  0  0  0  0  0  0  0  0  0  0
   -1.8596    1.2135    0.0000 C   0  0  0  0  0  0  0  0  0  0  0  0
   -1.2495    2.5838    0.0000 C   0  0  0  0  0  0  0  0  0  0  0  0
    0.8660    0.0000    0.0000 C   0  0  0  0  0  0  0  0  0  0  0  0
    1.8302    1.1491    0.0000 C   0  0  0  0  0  0  0  0  0  0  0  0
    2.7944    2.2981    0.0000 C   0  0  0  0  0  0  0  0  0  0  0  0
    2.9793    0.1849    0.0000 C   0  0  0  0  0  0  0  0  0  0  0  0
    3.9435    1.3340    0.0000 N   0  0  0  0  0  0  0  0  0  0  0  0
    4.1283   -0.7793    0.0000 C   0  0  0  0  0  0  0  0  0  0  0  0
    3.1642   -1.9284    0.0000 O   0  0  0  0  0  0  0  0  0  0  0  0
    5.2774   -1.7435    0.0000 C   0  0  0  0  0  0  0  0  0  0  0  0
    6.4265   -2.7077    0.0000 C   0  0  0  0  0  0  0  0  0  0  0  0
    7.5755   -3.6718    0.0000 C   0  0  0  0  0  0  0  0  0  0  0  0
    7.3151   -5.1491    0.0000 C   0  0  0  0  0  0  0  0  0  0  0  0
    8.4641   -6.1132    0.0000 C   0  0  0  0  0  0  0  0  0  0  0  0
    9.6132   -7.0774    0.0000 C   0  0  0  0  0  0  0  0  0  0  0  0
    7.5000   -7.2623    0.0000 C   0  0  0  0  0  0  0  0  0  0  0  0
    6.5358   -8.4114    0.0000 C   0  0  0  0  0  0  0  0  0  0  0  0
    4.3132   -2.8925    0.0000 C   0  0  0  0  0  0  0  0  0  0  0  0
    3.3490   -4.0416    0.0000 C   0  0  0  0  0  0  0  0  0  0  0  0
    5.4623   -3.8567    0.0000 O   0  0  0  0  0  0  0  0  0  0  0  0
    5.2018   -5.3339    0.0000 C   0  0  0  0  0  0  0  0  0  0  0  0
   -9.6871    9.6575    0.0000 H   0  0  0  0  0  0  0  0  0  0  0  0
  -10.0487   12.2303    0.0000 H   0  0  0  0  0  0  0  0  0  0  0  0
   -7.0761   10.6934    0.0000 H   0  0  0  0  0  0  0  0  0  0  0  0
   -8.4686   13.2098    0.0000 H   0  0  0  0  0  0  0  0  0  0  0  0
   -7.4395   15.2207    0.0000 H   0  0  0  0  0  0  0  0  0  0  0  0
   -5.0306   14.2474    0.0000 H   0  0  0  0  0  0  0  0  0  0  0  0
   -2.7345   11.9828    0.0000 H   0  0  0  0  0  0  0  0  0  0  0  0
   -4.1493   13.7938    0.0000 H   0  0  0  0  0  0  0  0  0  0  0  0
   -3.4915   10.1091    0.0000 H   0  0  0  0  0  0  0  0  0  0  0  0
   -6.2903   10.3909    0.0000 H   0  0  0  0  0  0  0  0  0  0  0  0
   -4.6526    8.7855    0.0000 H   0  0  0  0  0  0  0  0  0  0  0  0
   -8.2382    8.9864    0.0000 H   0  0  0  0  0  0  0  0  0  0  0  0
   -4.8402    6.9360    0.0000 H   0  0  0  0  0  0  0  0  0  0  0  0
   -6.0824    5.2729    0.0000 H   0  0  0  0  0  0  0  0  0  0  0  0
   -8.4259    7.1369    0.0000 H   0  0  0  0  0  0  0  0  0  0  0  0
   -9.4296    6.0222    0.0000 H   0  0  0  0  0  0  0  0  0  0  0  0
  -10.4333    4.9075    0.0000 H   0  0  0  0  0  0  0  0  0  0  0  0
   -8.3345    2.7717    0.0000 H   0  0  0  0  0  0  0  0  0  0  0  0
  -11.7895    3.1009    0.0000 H   0  0  0  0  0  0  0  0  0  0  0  0
   -9.8587    1.3625    0.0000 H   0  0  0  0  0  0  0  0  0  0  0  0
   -8.0605    2.7860    0.0000 H   0  0  0  0  0  0  0  0  0  0  0  0
   -6.0681    4.9988    0.0000 H   0  0  0  0  0  0  0  0  0  0  0  0
   -5.0817    4.1258    0.0000 H   0  0  0  0  0  0  0  0  0  0  0  0
   -7.0891    1.8964    0.0000 H   0  0  0  0  0  0  0  0  0  0  0  0
   -5.9744    0.8927    0.0000 H   0  0  0  0  0  0  0  0  0  0  0  0
   -3.9670    3.1221    0.0000 H   0  0  0  0  0  0  0  0  0  0  0  0
   -2.9957    2.2324    0.0000 H   0  0  0  0  0  0  0  0  0  0  0  0
   -4.8597   -0.1110    0.0000 H   0  0  0  0  0  0  0  0  0  0  0  0
   -3.8560   -1.0037    0.0000 H   0  0  0  0  0  0  0  0  0  0  0  0
   -3.1586   -1.9635    0.0000 H   0  0  0  0  0  0  0  0  0  0  0  0
   -1.2495   -2.5838    0.0000 H   0  0  0  0  0  0  0  0  0  0  0  0
    0.1771   -2.1203    0.0000 H   0  0  0  0  0  0  0  0  0  0  0  0
    0.1771    2.1203    0.0000 H   0  0  0  0  0  0  0  0  0  0  0  0
   -3.0575    2.1163    0.0000 H   0  0  0  0  0  0  0  0  0  0  0  0
   -0.6394    3.9542    0.0000 H   0  0  0  0  0  0  0  0  0  0  0  0
   -2.6198    3.1939    0.0000 H   0  0  0  0  0  0  0  0  0  0  0  0
    0.2277    2.3235    0.0000 H   0  0  0  0  0  0  0  0  0  0  0  0
    1.6830   -1.2580    0.0000 H   0  0  0  0  0  0  0  0  0  0  0  0
    0.9486    2.3626    0.0000 H   0  0  0  0  0  0  0  0  0  0  0  0
    3.6113    3.5562    0.0000 H   0  0  0  0  0  0  0  0  0  0  0  0
    4.1426    1.6406    0.0000 H   0  0  0  0  0  0  0  0  0  0  0  0
    1.6453    3.2623    0.0000 H   0  0  0  0  0  0  0  0  0  0  0  0
    2.1623   -1.0731    0.0000 H   0  0  0  0  0  0  0  0  0  0  0  0
    5.4414    1.2555    0.0000 H   0  0  0  0  0  0  0  0  0  0  0  0
    3.9698    2.8337    0.0000 H   0  0  0  0  0  0  0  0  0  0  0  0
    5.2254    0.2437    0.0000 H   0  0  0  0  0  0  0  0  0  0  0  0
    2.9552   -3.4137    0.0000 H   0  0  0  0  0  0  0  0  0  0  0  0
    6.2416   -0.5944    0.0000 H   0  0  0  0  0  0  0  0  0  0  0  0
    5.7690   -4.0559    0.0000 H   0  0  0  0  0  0  0  0  0  0  0  0
    7.3907   -1.5586    0.0000 H   0  0  0  0  0  0  0  0  0  0  0  0
    8.9851   -3.1588    0.0000 H   0  0  0  0  0  0  0  0  0  0  0  0
    6.0716   -5.9879    0.0000 H   0  0  0  0  0  0  0  0  0  0  0  0
    9.4283   -4.9642    0.0000 H   0  0  0  0  0  0  0  0  0  0  0  0
   10.7623   -8.0416    0.0000 H   0  0  0  0  0  0  0  0  0  0  0  0
   10.5774   -5.9283    0.0000 H   0  0  0  0  0  0  0  0  0  0  0  0
    8.7963   -8.3354    0.0000 H   0  0  0  0  0  0  0  0  0  0  0  0
    8.5229   -8.3594    0.0000 H   0  0  0  0  0  0  0  0  0  0  0  0
    6.3509   -6.2981    0.0000 H   0  0  0  0  0  0  0  0  0  0  0  0
    5.5716   -9.5604    0.0000 H   0  0  0  0  0  0  0  0  0  0  0  0
    7.6848   -9.3755    0.0000 H   0  0  0  0  0  0  0  0  0  0  0  0
    5.2777   -7.5944    0.0000 H   0  0  0  0  0  0  0  0  0  0  0  0
    2.9650   -2.2351    0.0000 H   0  0  0  0  0  0  0  0  0  0  0  0
    2.3849   -5.1907    0.0000 H   0  0  0  0  0  0  0  0  0  0  0  0
    4.0762   -5.3536    0.0000 H   0  0  0  0  0  0  0  0  0  0  0  0
    2.2000   -3.0774    0.0000 H   0  0  0  0  0  0  0  0  0  0  0  0
    4.7632   -6.7684    0.0000 H   0  0  0  0  0  0  0  0  0  0  0  0
    6.5721   -5.9441    0.0000 H   0  0  0  0  0  0  0  0  0  0  0  0
    3.7039   -5.2555    0.0000 H   0  0  0  0  0  0  0  0  0  0  0  0
  1  2  2  3
  2  3  1  0
  3  4  1  0
  3  5  1  0
  5  6  1  0
  6  7  1  0
  7  8  1  0
  8  9  1  0
  9 10  2  3
 10 11  1  0
 11 12  1  0
 12 13  1  0
 13 14  1  0
 12 15  1  0
 15 16  1  0
 16 17  1  0
 17 18  1  0
 18 19  1  0
 19 20  1  0
 20 21  1  0
 21 22  1  0
 22 23  1  0
 23 24  1  0
 22 25  1  0
 25 26  1  0
 26 27  1  0
 26 28  1  0
 28 29  1  0
 28 30  1  0
 30 31  1  0
 30 32  1  0
 32 33  1  0
 33 34  1  0
 34 35  2  3
 35 36  1  0
 36 37  1  0
 36 38  1  0
 38 39  1  0
 32 40  1  0
 40 41  1  0
 40 42  1  0
 42 43  1  0
  7  5  1  0
 23 19  1  0
 25 21  1  0
  1 44  1  0
  1 45  1  0
  2 46  1  0
  3 47  1  6
  4 48  1  0
  4 49  1  0
  6 50  1  0
  6 51  1  0
  7 52  1  6
  8 53  1  0
  8 54  1  0
  9 55  1  0
 10 56  1  0
 11 57  1  0
 11 58  1  0
 12 59  1  1
 13 60  1  0
 13 61  1  0
 14 62  1  0
 14 63  1  0
 15 64  1  0
 15 65  1  0
 16 66  1  0
 16 67  1  0
 17 68  1  0
 17 69  1  0
 18 70  1  0
 18 71  1  0
 19 72  1  6
 20 73  1  0
 20 74  1  0
 21 75  1  1
 22 76  1  1
 23 77  1  6
 24 78  1  0
 24 79  1  0
 24 80  1  0
 25 81  1  1
 26 82  1  1
 27 83  1  0
 27 84  1  0
 27 85  1  0
 28 86  1  6
 29 87  1  0
 29 88  1  0
 30 89  1  6
 31 90  1  0
 32 91  1  6
 33 92  1  0
 33 93  1  0
 34 94  1  0
 35 95  1  0
 36 96  1  6
 37 97  1  0
 37 98  1  0
 37 99  1  0
 38100  1  0
 38101  1  0
 39102  1  0
 39103  1  0
 39104  1  0
 40105  1  1
 41106  1  0
 41107  1  0
 41108  1  0
 43109  1  0
 43110  1  0
 43111  1  0
M  END
$$$$
