
     RDKit          2D

109117  0  0  0  0  0  0  0  0999 V2000
    0.7317   -5.0967    0.0000 C   0  0  0  0  0  0  0  0  0  0  0  0
    0.3434   -3.6478    0.0000 C   0  0  0  0  0  0  0  0  0  0  0  0
   -0.0448   -2.1989    0.0000 C   0  0  0  0  0  0  0  0  0  0  0  0
   -0.4330   -0.7500    0.0000 C   0  0  0  0  0  0  0  0  0  0  0  0
   -1.9330   -0.7500    0.0000 C   0  0  0  0  0  0  0  0  0  0  0  0
   -3.4330   -0.7500    0.0000 C   0  0  0  0  0  0  0  0  0  0  0  0
   -1.9330    0.7500    0.0000 C   0  0  0  0  0  0  0  0  0  0  0  0
   -2.9937    1.8107    0.0000 C   0  0  0  0  0  0  0  0  0  0  0  0
   -3.5677    3.1965    0.0000 C   0  0  0  0  0  0  0  0  0  0  0  0
   -2.9937    3.3107    0.0000 C   0  0  0  0  0  0  0  0  0  0  0  0
   -1.9330    4.3713    0.0000 C   0  0  0  0  0  0  0  0  0  0  0  0
   -0.4330    4.3713    0.0000 C   0  0  0  0  0  0  0  0  0  0  0  0
    0.6276    3.3107    0.0000 C   0  0  0  0  0  0  0  0  0  0  0  0
    0.6276    1.8107    0.0000 C   0  0  0  0  0  0  0  0  0  0  0  0
    1.3776    0.5116    0.0000 C   0  0  0  0  0  0  0  0  0  0  0  0
    2.1276   -0.7874    0.0000 C   0  0  0  0  0  0  0  0  0  0  0  0
    2.6767    1.2616    0.0000 C   0  0  0  0  0  0  0  0  0  0  0  0
    3.9757    2.0116    0.0000 C   0  0  0  0  0  0  0  0  0  0  0  0
    3.4627    3.4212    0.0000 O   0  0  0  0  0  0  0  0  0  0  0  0
    5.4529    2.2721    0.0000 C   0  0  0  0  0  0  0  0  0  0  0  0
    4.9399    0.8626    0.0000 S   0  0  0  0  0  4  0  0  0  0  0  0
    6.2389    0.1126    0.0000 C   0  0  0  0  0  0  0  0  0  0  0  0
    7.5380   -0.6374    0.0000 C   0  0  0  0  0  0  0  0  0  0  0  0
    3.9757   -0.2865    0.0000 O   0  0  0  0  0  0  0  0  0  0  0  0
    4.4888   -1.6961    0.0000 S   0  0  0  0  0  5  0  0  0  0  0  0
    5.0018   -3.1056    0.0000 C   0  0  0  0  0  0  0  0  0  0  0  0
   -0.4330    0.7500    0.0000 C   0  0  0  0  0  0  0  0  0  0  0  0
    0.8660    0.0000    0.0000 C   0  0  0  0  0  0  0  0  0  0  0  0
    1.8302    1.1491    0.0000 C   0  0  0  0  0  0  0  0  0  0  0  0
    2.7944    2.2981    0.0000 C   0  0  0  0  0  0  0  0  0  0  0  0
   -4.4937    3.3107    0.0000 C   0  0  0  0  0  0  0  0  0  0  0  0
   -5.9203    3.7742    0.0000 C   0  0  0  0  0  0  0  0  0  0  0  0
   -6.8019    2.5607    0.0000 C   0  0  0  0  0  0  0  0  0  0  0  0
   -8.0155    1.6790    0.0000 C   0  0  0  0  0  0  0  0  0  0  0  0
   -7.1338    0.4655    0.0000 C   0  0  0  0  0  0  0  0  0  0  0  0
   -5.9203    1.3471    0.0000 C   0  0  0  0  0  0  0  0  0  0  0  0
   -5.2393    0.0106    0.0000 C   0  0  0  0  0  0  0  0  0  0  0  0
   -4.4937    1.8107    0.0000 C   0  0  0  0  0  0  0  0  0  0  0  0
   -8.8971    2.8925    0.0000 C   0  0  0  0  0  0  0  0  0  0  0  0
   -9.7788    4.1060    0.0000 C   0  0  0  0  0  0  0  0  0  0  0  0
  -10.6605    5.3196    0.0000 N   0  0  0  0  0  0  0  0  0  0  0  0
   -8.5653    4.9877    0.0000 C   0  0  0  0  0  0  0  0  0  0  0  0
   -7.3518    5.8694    0.0000 C   0  0  0  0  0  0  0  0  0  0  0  0
   -6.1382    6.7511    0.0000 C   0  0  0  0  0  0  0  0  0  0  0  0
   -7.6836    3.7742    0.0000 C   0  0  0  0  0  0  0  0  0  0  0  0
    1.1199   -6.5456    0.0000 H   0  0  0  0  0  0  0  0  0  0  0  0
    1.4041   -1.8107    0.0000 H   0  0  0  0  0  0  0  0  0  0  0  0
   -1.4355   -2.7608    0.0000 H   0  0  0  0  0  0  0  0  0  0  0  0
   -2.1159   -2.2388    0.0000 H   0  0  0  0  0  0  0  0  0  0  0  0
   -4.9218   -0.9328    0.0000 H   0  0  0  0  0  0  0  0  0  0  0  0
   -3.4330   -2.2500    0.0000 H   0  0  0  0  0  0  0  0  0  0  0  0
   -3.4330    0.7500    0.0000 H   0  0  0  0  0  0  0  0  0  0  0  0
   -3.4165    0.5284    0.0000 H   0  0  0  0  0  0  0  0  0  0  0  0
   -4.1417    4.5823    0.0000 H   0  0  0  0  0  0  0  0  0  0  0  0
   -2.3620    4.0888    0.0000 H   0  0  0  0  0  0  0  0  0  0  0  0
   -4.9535    2.6225    0.0000 H   0  0  0  0  0  0  0  0  0  0  0  0
   -3.3945    4.7561    0.0000 H   0  0  0  0  0  0  0  0  0  0  0  0
   -1.7243    5.8567    0.0000 H   0  0  0  0  0  0  0  0  0  0  0  0
   -3.1309    5.2741    0.0000 H   0  0  0  0  0  0  0  0  0  0  0  0
    0.7649    5.2741    0.0000 H   0  0  0  0  0  0  0  0  0  0  0  0
   -0.6417    5.8567    0.0000 H   0  0  0  0  0  0  0  0  0  0  0  0
    2.1194    3.4676    0.0000 H   0  0  0  0  0  0  0  0  0  0  0  0
    1.5304    4.5086    0.0000 H   0  0  0  0  0  0  0  0  0  0  0  0
    1.9395    2.5379    0.0000 H   0  0  0  0  0  0  0  0  0  0  0  0
    0.2987   -0.5304    0.0000 H   0  0  0  0  0  0  0  0  0  0  0  0
    2.7137   -2.1682    0.0000 H   0  0  0  0  0  0  0  0  0  0  0  0
    3.6267   -0.7352    0.0000 H   0  0  0  0  0  0  0  0  0  0  0  0
    0.7469   -1.3735    0.0000 H   0  0  0  0  0  0  0  0  0  0  0  0
    3.4267   -0.0374    0.0000 H   0  0  0  0  0  0  0  0  0  0  0  0
    2.0906    2.6424    0.0000 H   0  0  0  0  0  0  0  0  0  0  0  0
    4.4269    4.5702    0.0000 H   0  0  0  0  0  0  0  0  0  0  0  0
    5.4529    3.7721    0.0000 H   0  0  0  0  0  0  0  0  0  0  0  0
    6.9509    2.1936    0.0000 H   0  0  0  0  0  0  0  0  0  0  0  0
    7.1417    1.3105    0.0000 H   0  0  0  0  0  0  0  0  0  0  0  0
    5.6529   -1.2682    0.0000 H   0  0  0  0  0  0  0  0  0  0  0  0
    8.8370   -1.3874    0.0000 H   0  0  0  0  0  0  0  0  0  0  0  0
    6.7880   -1.9365    0.0000 H   0  0  0  0  0  0  0  0  0  0  0  0
    8.2880    0.6616    0.0000 H   0  0  0  0  0  0  0  0  0  0  0  0
    5.9503   -1.3587    0.0000 H   0  0  0  0  0  0  0  0  0  0  0  0
    3.1523   -2.3771    0.0000 H   0  0  0  0  0  0  0  0  0  0  0  0
    4.0376   -4.2547    0.0000 H   0  0  0  0  0  0  0  0  0  0  0  0
    6.4790   -3.3661    0.0000 H   0  0  0  0  0  0  0  0  0  0  0  0
    1.6830   -1.2580    0.0000 H   0  0  0  0  0  0  0  0  0  0  0  0
    2.9793    0.1849    0.0000 H   0  0  0  0  0  0  0  0  0  0  0  0
    0.9486    2.3626    0.0000 H   0  0  0  0  0  0  0  0  0  0  0  0
    3.4519    3.6464    0.0000 H   0  0  0  0  0  0  0  0  0  0  0  0
    4.1426    1.6406    0.0000 H   0  0  0  0  0  0  0  0  0  0  0  0
    1.9128    3.5117    0.0000 H   0  0  0  0  0  0  0  0  0  0  0  0
   -4.6245    4.8049    0.0000 H   0  0  0  0  0  0  0  0  0  0  0  0
   -5.1477    5.0599    0.0000 H   0  0  0  0  0  0  0  0  0  0  0  0
   -6.9992    4.8162    0.0000 H   0  0  0  0  0  0  0  0  0  0  0  0
   -9.2290    0.7973    0.0000 H   0  0  0  0  0  0  0  0  0  0  0  0
   -6.4066   -0.8465    0.0000 H   0  0  0  0  0  0  0  0  0  0  0  0
   -8.3473   -0.4162    0.0000 H   0  0  0  0  0  0  0  0  0  0  0  0
   -4.7263   -1.3989    0.0000 H   0  0  0  0  0  0  0  0  0  0  0  0
   -6.4828   -0.8282    0.0000 H   0  0  0  0  0  0  0  0  0  0  0  0
   -3.9957    0.8494    0.0000 H   0  0  0  0  0  0  0  0  0  0  0  0
   -4.0802    0.3688    0.0000 H   0  0  0  0  0  0  0  0  0  0  0  0
  -10.1107    2.0108    0.0000 H   0  0  0  0  0  0  0  0  0  0  0  0
  -10.9923    3.2244    0.0000 H   0  0  0  0  0  0  0  0  0  0  0  0
  -12.1523    5.1628    0.0000 H   0  0  0  0  0  0  0  0  0  0  0  0
  -10.2220    6.7540    0.0000 H   0  0  0  0  0  0  0  0  0  0  0  0
   -9.2925    6.2997    0.0000 H   0  0  0  0  0  0  0  0  0  0  0  0
   -8.2334    7.0829    0.0000 H   0  0  0  0  0  0  0  0  0  0  0  0
   -6.2026    4.9053    0.0000 H   0  0  0  0  0  0  0  0  0  0  0  0
   -4.9247    7.6327    0.0000 H   0  0  0  0  0  0  0  0  0  0  0  0
   -7.0199    7.9646    0.0000 H   0  0  0  0  0  0  0  0  0  0  0  0
   -5.1152    5.6541    0.0000 H   0  0  0  0  0  0  0  0  0  0  0  0
   -6.4701    4.6559    0.0000 H   0  0  0  0  0  0  0  0  0  0  0  0
  1  2  3  0
  2  3  1  0
  3  4  1  0
  4  5  1  0
  5  6  1  0
  5  7  1  0
  7  8  1  0
  8  9  1  0
  8 10  1  0
 10 11  1  0
 11 12  1  0
 12 13  1  0
 13 14  1  0
 14 15  1  0
 15 16  1  0
 15 17  1  0
 17 18  1  0
 18 19  1  0
 18 20  1  0
 20 21  1  0
 21 22  1  0
 22 23  1  0
 21 24  1  0
 24 25  1  0
 25 26  2  3
 14 27  1  0
 27 28  1  0
 28 29  1  0
 29 30  1  0
 10 31  1  0
 31 32  1  0
 32 33  1  0
 33 34  1  0
 34 35  1  0
 35 36  1  0
 36 37  1  0
 36 38  1  0
 34 39  1  0
 39 40  1  0
 40 41  1  0
 40 42  1  0
 42 43  1  0
 43 44  1  0
 42 45  1  0
 27  4  1  0
 38 31  1  0
 45 39  1  0
 28  4  1  0
 36 33  1  0
 27  7  1  0
 45 33  1  0
 38  8  1  0
 21 18  1  0
  1 46  1  0
  3 47  1  0
  3 48  1  0
  5 49  1  0
  6 50  1  0
  6 51  1  0
  6 52  1  0
  7 53  1  0
  9 54  1  0
  9 55  1  0
  9 56  1  0
 10 57  1  0
 11 58  1  0
 11 59  1  0
 12 60  1  0
 12 61  1  0
 13 62  1  0
 13 63  1  0
 14 64  1  0
 15 65  1  0
 16 66  1  0
 16 67  1  0
 16 68  1  0
 17 69  1  0
 17 70  1  0
 19 71  1  0
 20 72  1  0
 20 73  1  0
 22 74  1  0
 22 75  1  0
 23 76  1  0
 23 77  1  0
 23 78  1  0
 25 79  1  0
 25 80  1  0
 26 81  1  0
 26 82  1  0
 28 83  1  0
 29 84  1  0
 29 85  1  0
 30 86  1  0
 30 87  1  0
 30 88  1  0
 31 89  1  0
 32 90  1  0
 32 91  1  0
 34 92  1  0
 35 93  1  0
 35 94  1  0
 37 95  1  0
 37 96  1  0
 37 97  1  0
 38 98  1  0
 39 99  1  0
 40100  1  0
 41101  1  0
 41102  1  0
 42103  1  0
 43104  1  0
 43105  1  0
 44106  1  0
 44107  1  0
 44108  1  0
 45109  1  0
M  RAD  1  25   2
M  END
$$$$
