
     RDKit          2D

 99105  0  0  0  0  0  0  0  0999 V2000
   -1.8205   -2.0314    0.0000 C   0  0  0  0  0  0  0  0  0  0  0  0
   -1.7420   -0.5335    0.0000 C   0  0  0  0  0  0  0  0  0  0  0  0
   -0.4055    0.1475    0.0000 C   0  0  0  0  0  0  0  0  0  0  0  0
    0.9310    0.8285    0.0000 O   0  0  0  0  0  0  0  0  0  0  0  0
    2.1890    0.0115    0.0000 C   0  0  0  0  0  0  0  0  0  0  0  0
    1.3721   -1.2465    0.0000 C   0  0  0  0  0  0  0  0  0  0  0  0
    3.0060    1.2696    0.0000 C   0  0  0  0  0  0  0  0  0  0  0  0
    3.8229    2.5276    0.0000 C   0  0  0  0  0  0  0  0  0  0  0  0
    4.3605    3.9279    0.0000 C   0  0  0  0  0  0  0  0  0  0  0  0
    5.8584    3.8494    0.0000 C   0  0  0  0  0  0  0  0  0  0  0  0
    5.7799    5.3474    0.0000 C   0  0  0  0  0  0  0  0  0  0  0  0
    5.7014    6.8453    0.0000 N   0  0  0  0  0  0  0  0  0  0  0  0
    6.9594    7.6623    0.0000 C   0  0  0  0  0  0  0  0  0  0  0  0
    8.2174    8.4792    0.0000 C   0  0  0  0  0  0  0  0  0  0  0  0
    6.2467    2.4005    0.0000 C   0  0  0  0  0  0  0  0  0  0  0  0
    4.9887    1.5836    0.0000 O   0  0  0  0  0  0  0  0  0  0  0  0
    1.7480    2.0865    0.0000 C   0  0  0  0  0  0  0  0  0  0  0  0
    0.3476    2.6241    0.0000 C   0  0  0  0  0  0  0  0  0  0  0  0
    0.4261    4.1220    0.0000 C   0  0  0  0  0  0  0  0  0  0  0  0
    1.0782    5.7373    0.0000 C   0  0  0  0  0  0  0  0  0  0  0  0
    1.8282    7.0363    0.0000 C   0  0  0  0  0  0  0  0  0  0  0  0
    3.2954    6.7244    0.0000 C   0  0  0  0  0  0  0  0  0  0  0  0
    3.4522    8.2162    0.0000 C   0  0  0  0  0  0  0  0  0  0  0  0
    4.8225    8.8263    0.0000 C   0  0  0  0  0  0  0  0  0  0  0  0
    2.2386    9.0979    0.0000 C   0  0  0  0  0  0  0  0  0  0  0  0
    1.0251    9.9796    0.0000 C   0  0  0  0  0  0  0  0  0  0  0  0
    3.4522    5.2327    0.0000 C   0  0  0  0  0  0  0  0  0  0  0  0
    4.0623    3.8623    0.0000 C   0  0  0  0  0  0  0  0  0  0  0  0
    4.6724    2.4920    0.0000 C   0  0  0  0  0  0  0  0  0  0  0  0
    2.6920    3.2522    0.0000 C   0  0  0  0  0  0  0  0  0  0  0  0
    2.0818    4.6225    0.0000 C   0  0  0  0  0  0  0  0  0  0  0  0
    3.2954    3.7409    0.0000 C   0  0  0  0  0  0  0  0  0  0  0  0
    2.6378    2.3927    0.0000 N   0  0  0  0  0  0  0  0  0  0  0  0
    3.4766    1.1491    0.0000 C   0  0  0  0  0  0  0  0  0  0  0  0
    4.3154   -0.0944    0.0000 C   0  0  0  0  0  0  0  0  0  0  0  0
    5.1542   -1.3380    0.0000 O   0  0  0  0  0  0  0  0  0  0  0  0
    6.6505   -1.2334    0.0000 C   0  0  0  0  0  0  0  0  0  0  0  0
   -3.0000    0.2835    0.0000 C   0  0  0  0  0  0  0  0  0  0  0  0
   -3.9027    1.4814    0.0000 C   0  0  0  0  0  0  0  0  0  0  0  0
   -2.4139    1.6642    0.0000 C   0  0  0  0  0  0  0  0  0  0  0  0
   -2.3354    3.1622    0.0000 N   0  0  0  0  0  0  0  0  0  0  0  0
   -3.5934    3.9792    0.0000 O   0  0  0  0  0  0  0  0  0  0  0  0
   -3.1570   -2.7124    0.0000 H   0  0  0  0  0  0  0  0  0  0  0  0
   -0.5625   -2.8484    0.0000 H   0  0  0  0  0  0  0  0  0  0  0  0
    0.1075   -1.2620    0.0000 H   0  0  0  0  0  0  0  0  0  0  0  0
   -0.9185    1.5571    0.0000 H   0  0  0  0  0  0  0  0  0  0  0  0
    3.3381   -0.9527    0.0000 H   0  0  0  0  0  0  0  0  0  0  0  0
    0.5551   -2.5045    0.0000 H   0  0  0  0  0  0  0  0  0  0  0  0
    2.6301   -2.0634    0.0000 H   0  0  0  0  0  0  0  0  0  0  0  0
   -0.0952   -0.9347    0.0000 H   0  0  0  0  0  0  0  0  0  0  0  0
    4.0289    0.1725    0.0000 H   0  0  0  0  0  0  0  0  0  0  0  0
    2.4864    3.2085    0.0000 H   0  0  0  0  0  0  0  0  0  0  0  0
    2.8607    3.9540    0.0000 H   0  0  0  0  0  0  0  0  0  0  0  0
    4.4128    5.4270    0.0000 H   0  0  0  0  0  0  0  0  0  0  0  0
    7.3400    4.0841    0.0000 H   0  0  0  0  0  0  0  0  0  0  0  0
    7.2779    5.4259    0.0000 H   0  0  0  0  0  0  0  0  0  0  0  0
    4.2836    5.4520    0.0000 H   0  0  0  0  0  0  0  0  0  0  0  0
    4.3649    7.5263    0.0000 H   0  0  0  0  0  0  0  0  0  0  0  0
    7.7764    6.4043    0.0000 H   0  0  0  0  0  0  0  0  0  0  0  0
    6.1425    8.9203    0.0000 H   0  0  0  0  0  0  0  0  0  0  0  0
    9.4754    9.2962    0.0000 H   0  0  0  0  0  0  0  0  0  0  0  0
    9.0344    7.2212    0.0000 H   0  0  0  0  0  0  0  0  0  0  0  0
    7.4005    9.7372    0.0000 H   0  0  0  0  0  0  0  0  0  0  0  0
    7.6470    2.9381    0.0000 H   0  0  0  0  0  0  0  0  0  0  0  0
    7.0855    1.1570    0.0000 H   0  0  0  0  0  0  0  0  0  0  0  0
    0.7638    0.9545    0.0000 H   0  0  0  0  0  0  0  0  0  0  0  0
   -0.0406    1.1752    0.0000 H   0  0  0  0  0  0  0  0  0  0  0  0
   -1.1339    2.8587    0.0000 H   0  0  0  0  0  0  0  0  0  0  0  0
   -1.0702    4.2267    0.0000 H   0  0  0  0  0  0  0  0  0  0  0  0
    0.1915    5.6035    0.0000 H   0  0  0  0  0  0  0  0  0  0  0  0
    0.4578    7.6464    0.0000 H   0  0  0  0  0  0  0  0  0  0  0  0
    1.9327    8.5327    0.0000 H   0  0  0  0  0  0  0  0  0  0  0  0
    4.7954    6.7244    0.0000 H   0  0  0  0  0  0  0  0  0  0  0  0
    4.9793   10.3181    0.0000 H   0  0  0  0  0  0  0  0  0  0  0  0
    6.0360    7.9446    0.0000 H   0  0  0  0  0  0  0  0  0  0  0  0
    3.1203   10.3114    0.0000 H   0  0  0  0  0  0  0  0  0  0  0  0
    1.3570    7.8844    0.0000 H   0  0  0  0  0  0  0  0  0  0  0  0
   -0.1884   10.8613    0.0000 H   0  0  0  0  0  0  0  0  0  0  0  0
    1.9068   11.1931    0.0000 H   0  0  0  0  0  0  0  0  0  0  0  0
    0.1434    8.7660    0.0000 H   0  0  0  0  0  0  0  0  0  0  0  0
    5.2442    4.7859    0.0000 H   0  0  0  0  0  0  0  0  0  0  0  0
    5.7331    1.4314    0.0000 H   0  0  0  0  0  0  0  0  0  0  0  0
    6.0427    3.1021    0.0000 H   0  0  0  0  0  0  0  0  0  0  0  0
    4.0625    1.1216    0.0000 H   0  0  0  0  0  0  0  0  0  0  0  0
    4.7945    3.6886    0.0000 H   0  0  0  0  0  0  0  0  0  0  0  0
    1.2113    1.9291    0.0000 H   0  0  0  0  0  0  0  0  0  0  0  0
    4.9684    1.3058    0.0000 H   0  0  0  0  0  0  0  0  0  0  0  0
    2.4730    0.0344    0.0000 H   0  0  0  0  0  0  0  0  0  0  0  0
    5.6519    0.5865    0.0000 H   0  0  0  0  0  0  0  0  0  0  0  0
    3.1834   -1.0786    0.0000 H   0  0  0  0  0  0  0  0  0  0  0  0
    8.1469   -1.1287    0.0000 H   0  0  0  0  0  0  0  0  0  0  0  0
    6.7552   -2.7297    0.0000 H   0  0  0  0  0  0  0  0  0  0  0  0
    6.7291    0.2646    0.0000 H   0  0  0  0  0  0  0  0  0  0  0  0
   -4.0230   -0.8135    0.0000 H   0  0  0  0  0  0  0  0  0  0  0  0
   -5.2392    0.8005    0.0000 H   0  0  0  0  0  0  0  0  0  0  0  0
   -4.3413    2.9159    0.0000 H   0  0  0  0  0  0  0  0  0  0  0  0
   -0.9221    1.5075    0.0000 H   0  0  0  0  0  0  0  0  0  0  0  0
   -1.0919    4.0010    0.0000 H   0  0  0  0  0  0  0  0  0  0  0  0
   -3.5149    5.4771    0.0000 H   0  0  0  0  0  0  0  0  0  0  0  0
  1  2  2  3
  2  3  1  0
  3  4  1  0
  4  5  1  0
  5  6  1  0
  5  7  1  0
  7  8  1  0
  8  9  1  0
  9 10  1  0
 10 11  1  0
 11 12  1  0
 12 13  1  0
 13 14  1  0
 10 15  1  0
 15 16  1  0
  7 17  1  0
 17 18  1  0
 18 19  1  0
 19 20  1  0
 20 21  1  0
 21 22  1  0
 22 23  1  0
 23 24  2  3
 23 25  1  0
 25 26  1  0
 22 27  1  0
 27 28  1  0
 28 29  1  0
 28 30  1  0
 30 31  1  0
 31 32  1  0
 32 33  1  0
 33 34  1  0
 34 35  1  0
 35 36  1  0
 36 37  1  0
  2 38  1  0
 38 39  1  0
 39 40  1  0
 40 41  1  0
 41 42  1  0
 16  8  1  0
 30 17  1  0
 40 38  1  0
 30 20  1  0
 31 20  1  0
 31 27  1  0
 32 27  1  0
  1 43  1  0
  1 44  1  0
  3 45  1  0
  3 46  1  0
  5 47  1  0
  6 48  1  0
  6 49  1  0
  6 50  1  0
  7 51  1  0
  8 52  1  0
  9 53  1  0
  9 54  1  0
 10 55  1  0
 11 56  1  0
 11 57  1  0
 12 58  1  0
 13 59  1  0
 13 60  1  0
 14 61  1  0
 14 62  1  0
 14 63  1  0
 15 64  1  0
 15 65  1  0
 17 66  1  0
 18 67  1  0
 18 68  1  0
 19 69  1  0
 19 70  1  0
 21 71  1  0
 21 72  1  0
 22 73  1  0
 24 74  1  0
 24 75  1  0
 25 76  1  0
 25 77  1  0
 26 78  1  0
 26 79  1  0
 26 80  1  0
 28 81  1  0
 29 82  1  0
 29 83  1  0
 29 84  1  0
 32 85  1  0
 33 86  1  0
 34 87  1  0
 34 88  1  0
 35 89  1  0
 35 90  1  0
 37 91  1  0
 37 92  1  0
 37 93  1  0
 38 94  1  0
 39 95  1  0
 39 96  1  0
 40 97  1  0
 41 98  1  0
 42 99  1  0
M  END
$$$$
