
     RDKit          2D

 50 53  0  0  0  0  0  0  0  0999 V2000
   -7.0543    5.9462    0.0000 C   0  0  0  0  0  0  0  0  0  0  0  0
   -6.3043    4.6471    0.0000 C   0  0  0  0  0  0  0  0  0  0  0  0
   -5.5543    3.3481    0.0000 C   0  0  0  0  0  0  0  0  0  0  0  0
   -4.8043    2.0490    0.0000 C   0  0  0  0  0  0  0  0  0  0  0  0
   -4.0543    0.7500    0.0000 C   0  0  0  0  0  0  0  0  0  0  0  0
   -4.0543   -0.7500    0.0000 C   0  0  0  0  0  0  0  0  0  0  0  0
   -2.9937   -1.8107    0.0000 C   0  0  0  0  0  0  0  0  0  0  0  0
   -1.4937   -1.8107    0.0000 N   0  0  0  0  0  0  0  0  0  0  0  0
   -0.2575   -2.6603    0.0000 C   0  0  0  0  0  0  0  0  0  0  0  0
    0.9325   -1.7471    0.0000 C   0  0  0  0  0  0  0  0  0  0  0  0
    1.7163   -3.0261    0.0000 C   0  0  0  0  0  0  0  0  0  0  0  0
    2.2864   -1.1014    0.0000 O   0  0  0  0  0  0  0  0  0  0  0  0
    0.8660    0.0000    0.0000 C   0  0  0  0  0  0  0  0  0  0  0  0
    1.4807    1.4191    0.0000 C   0  0  0  0  0  0  0  0  0  0  0  0
    0.9066    2.8049    0.0000 C   0  0  0  0  0  0  0  0  0  0  0  0
   -0.5805    3.0007    0.0000 C   0  0  0  0  0  0  0  0  0  0  0  0
   -1.4937    1.8107    0.0000 C   0  0  0  0  0  0  0  0  0  0  0  0
   -2.9937    1.8107    0.0000 C   0  0  0  0  0  0  0  0  0  0  0  0
   -0.4330    0.7500    0.0000 C   0  0  0  0  0  0  0  0  0  0  0  0
   -0.4330   -0.7500    0.0000 N   0  0  0  0  0  0  0  0  0  0  0  0
   -7.8043    7.2452    0.0000 H   0  0  0  0  0  0  0  0  0  0  0  0
   -8.3534    5.1962    0.0000 H   0  0  0  0  0  0  0  0  0  0  0  0
   -5.7553    6.6962    0.0000 H   0  0  0  0  0  0  0  0  0  0  0  0
   -7.6034    3.8971    0.0000 H   0  0  0  0  0  0  0  0  0  0  0  0
   -5.0053    5.3971    0.0000 H   0  0  0  0  0  0  0  0  0  0  0  0
   -4.2553    4.0981    0.0000 H   0  0  0  0  0  0  0  0  0  0  0  0
   -6.8534    2.5981    0.0000 H   0  0  0  0  0  0  0  0  0  0  0  0
   -3.6064    2.9518    0.0000 H   0  0  0  0  0  0  0  0  0  0  0  0
   -6.1034    1.2990    0.0000 H   0  0  0  0  0  0  0  0  0  0  0  0
   -5.5397    0.5413    0.0000 H   0  0  0  0  0  0  0  0  0  0  0  0
   -5.5397   -0.5413    0.0000 H   0  0  0  0  0  0  0  0  0  0  0  0
   -4.9571   -1.9479    0.0000 H   0  0  0  0  0  0  0  0  0  0  0  0
   -4.1916   -2.7134    0.0000 H   0  0  0  0  0  0  0  0  0  0  0  0
   -2.6054   -3.2595    0.0000 H   0  0  0  0  0  0  0  0  0  0  0  0
   -1.2317   -3.8009    0.0000 H   0  0  0  0  0  0  0  0  0  0  0  0
    0.2167   -3.3011    0.0000 H   0  0  0  0  0  0  0  0  0  0  0  0
    2.5000   -4.3050    0.0000 H   0  0  0  0  0  0  0  0  0  0  0  0
    3.0813   -2.4041    0.0000 H   0  0  0  0  0  0  0  0  0  0  0  0
    1.0924   -3.5223    0.0000 H   0  0  0  0  0  0  0  0  0  0  0  0
    3.6170   -1.7939    0.0000 H   0  0  0  0  0  0  0  0  0  0  0  0
    2.7457    2.2250    0.0000 H   0  0  0  0  0  0  0  0  0  0  0  0
    2.4940    0.3132    0.0000 H   0  0  0  0  0  0  0  0  0  0  0  0
    0.8412    4.3035    0.0000 H   0  0  0  0  0  0  0  0  0  0  0  0
    2.3711    3.1296    0.0000 H   0  0  0  0  0  0  0  0  0  0  0  0
   -1.8167    3.8503    0.0000 H   0  0  0  0  0  0  0  0  0  0  0  0
   -0.1295    4.4313    0.0000 H   0  0  0  0  0  0  0  0  0  0  0  0
   -1.2720    3.2942    0.0000 H   0  0  0  0  0  0  0  0  0  0  0  0
   -2.7850    3.2961    0.0000 H   0  0  0  0  0  0  0  0  0  0  0  0
   -3.9376    2.9765    0.0000 H   0  0  0  0  0  0  0  0  0  0  0  0
    0.4801    1.9400    0.0000 H   0  0  0  0  0  0  0  0  0  0  0  0
  1  2  1  0
  2  3  1  0
  3  4  1  0
  4  5  1  0
  5  6  1  0
  6  7  1  0
  7  8  1  0
  8  9  1  0
  9 10  1  0
 10 11  1  0
 10 12  1  0
 10 13  1  0
 13 14  1  0
 14 15  1  0
 15 16  1  0
 16 17  1  0
 17 18  1  0
 17 19  1  0
 19 20  1  0
 18  5  1  0
 20  8  1  0
 19 13  1  0
 20 13  1  0
  1 21  1  0
  1 22  1  0
  1 23  1  0
  2 24  1  0
  2 25  1  0
  3 26  1  0
  3 27  1  0
  4 28  1  0
  4 29  1  0
  5 30  1  0
  6 31  1  0
  6 32  1  0
  7 33  1  0
  7 34  1  0
  9 35  1  0
  9 36  1  0
 11 37  1  0
 11 38  1  0
 11 39  1  0
 12 40  1  0
 14 41  1  0
 14 42  1  0
 15 43  1  0
 15 44  1  0
 16 45  1  0
 16 46  1  0
 17 47  1  0
 18 48  1  0
 18 49  1  0
 19 50  1  0
M  END
$$$$
