
     RDKit          2D

 28 28  0  0  0  0  0  0  0  0999 V2000
    6.6431    2.2577    0.0000 O   0  0  0  0  0  0  0  0  0  0  0  0
    5.2468    2.8057    0.0000 C   0  0  0  0  0  0  0  0  0  0  0  0
    4.0741    1.8705    0.0000 C   0  0  0  0  0  0  0  0  0  0  0  0
    5.0093    0.6977    0.0000 O   0  0  0  0  0  0  0  0  0  0  0  0
    2.9013    0.9352    0.0000 C   0  0  0  0  0  0  0  0  0  0  0  0
    1.7286    0.0000    0.0000 C   0  0  0  0  0  0  0  0  0  0  0  0
    1.0777    1.3515    0.0000 C   0  0  0  0  0  0  0  0  0  0  0  0
   -0.3846    1.6852    0.0000 C   0  0  0  0  0  0  0  0  0  0  0  0
   -1.5574    0.7500    0.0000 C   0  0  0  0  0  0  0  0  0  0  0  0
   -1.5574   -0.7500    0.0000 C   0  0  0  0  0  0  0  0  0  0  0  0
   -0.3846   -1.6852    0.0000 C   0  0  0  0  0  0  0  0  0  0  0  0
    1.0777   -1.3515    0.0000 C   0  0  0  0  0  0  0  0  0  0  0  0
    5.0233    4.2890    0.0000 H   0  0  0  0  0  0  0  0  0  0  0  0
    3.1388    3.0432    0.0000 H   0  0  0  0  0  0  0  0  0  0  0  0
    6.4925    0.9213    0.0000 H   0  0  0  0  0  0  0  0  0  0  0  0
    3.8366   -0.2375    0.0000 H   0  0  0  0  0  0  0  0  0  0  0  0
    2.4376    1.6899    0.0000 H   0  0  0  0  0  0  0  0  0  0  0  0
    3.0066   -0.7853    0.0000 H   0  0  0  0  0  0  0  0  0  0  0  0
    1.5415    2.1061    0.0000 H   0  0  0  0  0  0  0  0  0  0  0  0
   -0.7184    3.1476    0.0000 H   0  0  0  0  0  0  0  0  0  0  0  0
   -3.0496    0.5970    0.0000 H   0  0  0  0  0  0  0  0  0  0  0  0
   -2.2082    2.1015    0.0000 H   0  0  0  0  0  0  0  0  0  0  0  0
   -2.3681   -2.0120    0.0000 H   0  0  0  0  0  0  0  0  0  0  0  0
   -3.0496   -0.5970    0.0000 H   0  0  0  0  0  0  0  0  0  0  0  0
    0.0966   -3.1059    0.0000 H   0  0  0  0  0  0  0  0  0  0  0  0
   -1.4346   -2.7564    0.0000 H   0  0  0  0  0  0  0  0  0  0  0  0
    2.4885   -1.8610    0.0000 H   0  0  0  0  0  0  0  0  0  0  0  0
    1.2606   -2.8403    0.0000 H   0  0  0  0  0  0  0  0  0  0  0  0
  1  2  2  0
  2  3  1  0
  3  4  1  0
  3  5  1  0
  5  6  1  0
  6  7  1  0
  7  8  2  0
  8  9  1  0
  9 10  1  0
 10 11  1  0
 11 12  1  0
 12  6  1  0
  2 13  1  0
  3 14  1  0
  4 15  1  0
  5 16  1  0
  5 17  1  0
  6 18  1  0
  7 19  1  0
  8 20  1  0
  9 21  1  0
  9 22  1  0
 10 23  1  0
 10 24  1  0
 11 25  1  0
 11 26  1  0
 12 27  1  0
 12 28  1  0
M  END
$$$$
