
     RDKit          2D

113120  0  0  0  0  0  0  0  0999 V2000
   -6.1937   10.9182    0.0000 C   0  0  0  0  0  0  0  0  0  0  0  0
   -5.2381    9.7620    0.0000 C   0  0  0  0  0  0  0  0  0  0  0  0
   -4.2826    8.6057    0.0000 C   0  0  0  0  0  0  0  0  0  0  0  0
   -3.3270    7.4495    0.0000 C   0  0  0  0  0  0  0  0  0  0  0  0
   -2.3714    6.2933    0.0000 C   0  0  0  0  0  0  0  0  0  0  0  0
   -1.2152    7.2488    0.0000 C   0  0  0  0  0  0  0  0  0  0  0  0
   -1.4159    5.1370    0.0000 C   0  0  0  0  0  0  0  0  0  0  0  0
   -2.5721    4.1814    0.0000 C   0  0  0  0  0  0  0  0  0  0  0  0
   -1.9484    2.8173    0.0000 C   0  0  0  0  0  0  0  0  0  0  0  0
   -3.4417    2.9592    0.0000 C   0  0  0  0  0  0  0  0  0  0  0  0
   -3.8407    1.5132    0.0000 C   0  0  0  0  0  0  0  0  0  0  0  0
   -4.2398    0.0673    0.0000 C   0  0  0  0  0  0  0  0  0  0  0  0
   -5.2267   -1.0623    0.0000 C   0  0  0  0  0  0  0  0  0  0  0  0
   -4.9588   -2.5382    0.0000 C   0  0  0  0  0  0  0  0  0  0  0  0
   -3.6379   -3.2490    0.0000 C   0  0  0  0  0  0  0  0  0  0  0  0
   -4.1964   -4.6412    0.0000 C   0  0  0  0  0  0  0  0  0  0  0  0
   -5.3761   -5.5676    0.0000 C   0  0  0  0  0  0  0  0  0  0  0  0
   -6.5558   -6.4941    0.0000 C   0  0  0  0  0  0  0  0  0  0  0  0
   -7.7355   -7.4205    0.0000 C   0  0  0  0  0  0  0  0  0  0  0  0
   -7.4822   -5.3143    0.0000 C   0  0  0  0  0  0  0  0  0  0  0  0
   -8.4087   -4.1346    0.0000 C   0  0  0  0  0  0  0  0  0  0  0  0
   -9.3351   -2.9549    0.0000 O   0  0  0  0  0  0  0  0  0  0  0  0
   -3.6068   -6.0205    0.0000 C   0  0  0  0  0  0  0  0  0  0  0  0
   -3.7859   -7.5097    0.0000 O   0  0  0  0  0  0  0  0  0  0  0  0
   -5.1652   -8.0993    0.0000 C   0  0  0  0  0  0  0  0  0  0  0  0
   -5.7548   -6.7200    0.0000 C   0  0  0  0  0  0  0  0  0  0  0  0
   -6.3443   -5.3407    0.0000 O   0  0  0  0  0  0  0  0  0  0  0  0
   -4.5757   -9.4786    0.0000 N   0  0  0  0  0  0  0  0  0  0  0  0
   -5.4754  -10.6788    0.0000 C   0  0  0  0  0  0  0  0  0  0  0  0
   -6.3752  -11.8790    0.0000 C   0  0  0  0  0  0  0  0  0  0  0  0
   -2.2147   -6.5789    0.0000 C   0  0  0  0  0  0  0  0  0  0  0  0
   -0.8354   -5.9894    0.0000 C   0  0  0  0  0  0  0  0  0  0  0  0
   -0.2769   -4.5972    0.0000 C   0  0  0  0  0  0  0  0  0  0  0  0
   -0.8665   -3.2179    0.0000 N   0  0  0  0  0  0  0  0  0  0  0  0
   -2.2587   -2.6595    0.0000 S   0  0  0  0  0  4  0  0  0  0  0  0
   -1.8596   -1.2135    0.0000 C   0  0  0  0  0  0  0  0  0  0  0  0
   -2.7413    0.0000    0.0000 C   0  0  0  0  0  0  0  0  0  0  0  0
   -1.8596    1.2135    0.0000 C   0  0  0  0  0  0  0  0  0  0  0  0
   -0.7449    2.2172    0.0000 C   0  0  0  0  0  0  0  0  0  0  0  0
   -0.4330    0.7500    0.0000 C   0  0  0  0  0  0  0  0  0  0  0  0
    0.8660    0.0000    0.0000 C   0  0  0  0  0  0  0  0  0  0  0  0
   -0.4330   -0.7500    0.0000 C   0  0  0  0  0  0  0  0  0  0  0  0
   -3.5277    5.3377    0.0000 C   0  0  0  0  0  0  0  0  0  0  0  0
   -4.6839    4.3821    0.0000 C   0  0  0  0  0  0  0  0  0  0  0  0
   -5.8402    3.4266    0.0000 C   0  0  0  0  0  0  0  0  0  0  0  0
   -7.1492   12.0745    0.0000 H   0  0  0  0  0  0  0  0  0  0  0  0
   -7.3499    9.9627    0.0000 H   0  0  0  0  0  0  0  0  0  0  0  0
   -5.0374   11.8738    0.0000 H   0  0  0  0  0  0  0  0  0  0  0  0
   -6.3944    8.8064    0.0000 H   0  0  0  0  0  0  0  0  0  0  0  0
   -4.0819   10.7175    0.0000 H   0  0  0  0  0  0  0  0  0  0  0  0
   -3.1263    9.5613    0.0000 H   0  0  0  0  0  0  0  0  0  0  0  0
   -5.4388    7.6502    0.0000 H   0  0  0  0  0  0  0  0  0  0  0  0
   -4.5911    6.6420    0.0000 H   0  0  0  0  0  0  0  0  0  0  0  0
   -2.7181    8.0928    0.0000 H   0  0  0  0  0  0  0  0  0  0  0  0
   -0.0589    8.2044    0.0000 H   0  0  0  0  0  0  0  0  0  0  0  0
   -1.6920    7.9952    0.0000 H   0  0  0  0  0  0  0  0  0  0  0  0
   -0.5719    6.6399    0.0000 H   0  0  0  0  0  0  0  0  0  0  0  0
   -0.6694    5.6138    0.0000 H   0  0  0  0  0  0  0  0  0  0  0  0
   -0.3265    4.1059    0.0000 H   0  0  0  0  0  0  0  0  0  0  0  0
   -0.4615    3.0149    0.0000 H   0  0  0  0  0  0  0  0  0  0  0  0
   -1.5660    2.0183    0.0000 H   0  0  0  0  0  0  0  0  0  0  0  0
   -4.9119    3.2563    0.0000 H   0  0  0  0  0  0  0  0  0  0  0  0
   -2.3569    1.2934    0.0000 H   0  0  0  0  0  0  0  0  0  0  0  0
   -5.3245    1.7331    0.0000 H   0  0  0  0  0  0  0  0  0  0  0  0
   -5.4642    0.9338    0.0000 H   0  0  0  0  0  0  0  0  0  0  0  0
   -6.2497    0.0347    0.0000 H   0  0  0  0  0  0  0  0  0  0  0  0
   -6.6675   -1.4793    0.0000 H   0  0  0  0  0  0  0  0  0  0  0  0
   -6.4544   -2.6541    0.0000 H   0  0  0  0  0  0  0  0  0  0  0  0
   -5.5312   -3.9247    0.0000 H   0  0  0  0  0  0  0  0  0  0  0  0
   -4.1633   -1.8440    0.0000 H   0  0  0  0  0  0  0  0  0  0  0  0
   -5.4973   -3.8945    0.0000 H   0  0  0  0  0  0  0  0  0  0  0  0
   -4.4497   -6.7473    0.0000 H   0  0  0  0  0  0  0  0  0  0  0  0
   -6.1518   -4.2838    0.0000 H   0  0  0  0  0  0  0  0  0  0  0  0
   -5.9424   -7.8629    0.0000 H   0  0  0  0  0  0  0  0  0  0  0  0
   -8.9152   -8.3469    0.0000 H   0  0  0  0  0  0  0  0  0  0  0  0
   -8.7988   -6.3625    0.0000 H   0  0  0  0  0  0  0  0  0  0  0  0
   -6.9598   -8.7043    0.0000 H   0  0  0  0  0  0  0  0  0  0  0  0
   -8.7661   -6.0901    0.0000 H   0  0  0  0  0  0  0  0  0  0  0  0
   -6.4243   -4.2510    0.0000 H   0  0  0  0  0  0  0  0  0  0  0  0
   -9.5884   -5.0611    0.0000 H   0  0  0  0  0  0  0  0  0  0  0  0
   -7.2290   -3.2082    0.0000 H   0  0  0  0  0  0  0  0  0  0  0  0
  -10.8200   -3.1674    0.0000 H   0  0  0  0  0  0  0  0  0  0  0  0
   -4.9962   -6.5859    0.0000 H   0  0  0  0  0  0  0  0  0  0  0  0
   -6.4624   -8.8526    0.0000 H   0  0  0  0  0  0  0  0  0  0  0  0
   -6.9504   -7.6258    0.0000 H   0  0  0  0  0  0  0  0  0  0  0  0
   -4.5591   -5.8142    0.0000 H   0  0  0  0  0  0  0  0  0  0  0  0
   -7.7460   -4.8066    0.0000 H   0  0  0  0  0  0  0  0  0  0  0  0
   -3.0864   -9.6577    0.0000 H   0  0  0  0  0  0  0  0  0  0  0  0
   -6.6756   -9.7790    0.0000 H   0  0  0  0  0  0  0  0  0  0  0  0
   -4.2752  -11.5785    0.0000 H   0  0  0  0  0  0  0  0  0  0  0  0
   -7.2749  -13.0792    0.0000 H   0  0  0  0  0  0  0  0  0  0  0  0
   -7.5754  -10.9792    0.0000 H   0  0  0  0  0  0  0  0  0  0  0  0
   -5.1750  -12.7787    0.0000 H   0  0  0  0  0  0  0  0  0  0  0  0
   -1.4389   -7.8628    0.0000 H   0  0  0  0  0  0  0  0  0  0  0  0
   -2.7973   -7.9612    0.0000 H   0  0  0  0  0  0  0  0  0  0  0  0
    0.6210   -6.3487    0.0000 H   0  0  0  0  0  0  0  0  0  0  0  0
   -0.4435   -7.4373    0.0000 H   0  0  0  0  0  0  0  0  0  0  0  0
    0.9028   -3.6708    0.0000 H   0  0  0  0  0  0  0  0  0  0  0  0
    1.0240   -5.3439    0.0000 H   0  0  0  0  0  0  0  0  0  0  0  0
   -1.7474   -4.0696    0.0000 H   0  0  0  0  0  0  0  0  0  0  0  0
   -0.7754   -2.2501    0.0000 H   0  0  0  0  0  0  0  0  0  0  0  0
   -3.6618   -1.1843    0.0000 H   0  0  0  0  0  0  0  0  0  0  0  0
   -2.9743    2.2172    0.0000 H   0  0  0  0  0  0  0  0  0  0  0  0
   -1.2083    3.6438    0.0000 H   0  0  0  0  0  0  0  0  0  0  0  0
    0.6459    2.7791    0.0000 H   0  0  0  0  0  0  0  0  0  0  0  0
    1.8302    1.1491    0.0000 H   0  0  0  0  0  0  0  0  0  0  0  0
    1.8302   -1.1491    0.0000 H   0  0  0  0  0  0  0  0  0  0  0  0
   -4.6171    6.3688    0.0000 H   0  0  0  0  0  0  0  0  0  0  0  0
   -5.6395    5.5384    0.0000 H   0  0  0  0  0  0  0  0  0  0  0  0
   -4.0365    3.0290    0.0000 H   0  0  0  0  0  0  0  0  0  0  0  0
   -6.9964    2.4710    0.0000 H   0  0  0  0  0  0  0  0  0  0  0  0
   -6.7957    4.5828    0.0000 H   0  0  0  0  0  0  0  0  0  0  0  0
   -5.0327    2.1625    0.0000 H   0  0  0  0  0  0  0  0  0  0  0  0
  1  2  1  0
  2  3  1  0
  3  4  1  0
  4  5  1  0
  5  6  1  0
  5  7  1  0
  7  8  1  0
  8  9  1  0
  9 10  1  0
 10 11  1  0
 11 12  1  0
 12 13  1  0
 13 14  1  0
 14 15  1  0
 15 16  1  0
 16 17  1  0
 17 18  1  0
 18 19  1  0
 18 20  1  0
 20 21  1  0
 21 22  1  0
 16 23  1  0
 23 24  1  0
 24 25  1  0
 25 26  1  0
 26 27  1  0
 25 28  1  0
 28 29  1  0
 29 30  1  0
 23 31  1  0
 31 32  1  0
 32 33  1  0
 33 34  1  0
 34 35  1  0
 35 36  1  0
 36 37  1  0
 37 38  1  0
 38 39  1  0
 39 40  1  0
 40 41  1  0
 41 42  1  0
  8 43  1  0
 43 44  1  0
 44 45  1  0
 43  5  1  0
 10  8  1  0
 37 12  1  0
 40 38  1  0
 35 15  1  0
 42 36  1  0
 42 34  1  0
 42 40  1  0
  1 46  1  0
  1 47  1  0
  1 48  1  0
  2 49  1  0
  2 50  1  0
  3 51  1  0
  3 52  1  0
  4 53  1  0
  4 54  1  0
  6 55  1  0
  6 56  1  0
  6 57  1  0
  7 58  1  0
  7 59  1  0
  9 60  1  0
  9 61  1  0
 10 62  1  0
 11 63  1  0
 11 64  1  0
 12 65  1  0
 13 66  1  0
 13 67  1  0
 14 68  1  0
 14 69  1  0
 15 70  1  0
 16 71  1  0
 17 72  1  0
 17 73  1  0
 18 74  1  0
 19 75  1  0
 19 76  1  0
 19 77  1  0
 20 78  1  0
 20 79  1  0
 21 80  1  0
 21 81  1  0
 22 82  1  0
 23 83  1  0
 25 84  1  0
 26 85  1  0
 26 86  1  0
 27 87  1  0
 28 88  1  0
 29 89  1  0
 29 90  1  0
 30 91  1  0
 30 92  1  0
 30 93  1  0
 31 94  1  0
 31 95  1  0
 32 96  1  0
 32 97  1  0
 33 98  1  0
 33 99  1  0
 35100  1  0
 36101  1  0
 37102  1  0
 38103  1  0
 39104  1  0
 39105  1  0
 41106  1  0
 41107  1  0
 43108  1  0
 44109  1  0
 44110  1  0
 45111  1  0
 45112  1  0
 45113  1  0
M  END
$$$$
