
     RDKit          2D

 66 70  0  0  0  0  0  0  0  0999 V2000
    0.4776  -11.0067    0.0000 C   0  0  0  0  0  0  0  0  0  0  0  0
    0.6344   -9.5149    0.0000 N   0  0  0  0  0  0  0  0  0  0  0  0
   -0.5791   -8.6332    0.0000 C   0  0  0  0  0  0  0  0  0  0  0  0
   -1.7926   -7.7515    0.0000 C   0  0  0  0  0  0  0  0  0  0  0  0
   -3.0062   -6.8699    0.0000 C   0  0  0  0  0  0  0  0  0  0  0  0
   -4.2197   -5.9882    0.0000 C   0  0  0  0  0  0  0  0  0  0  0  0
   -3.2160   -4.8735    0.0000 N   0  0  0  0  0  0  0  0  0  0  0  0
   -5.2234   -4.8735    0.0000 C   0  0  0  0  0  0  0  0  0  0  0  0
   -6.5937   -5.4836    0.0000 N   0  0  0  0  0  0  0  0  0  0  0  0
   -6.4369   -6.9753    0.0000 C   0  0  0  0  0  0  0  0  0  0  0  0
   -6.5937   -8.4671    0.0000 Sb  0  0  0  0  0  2  0  0  0  0  0  0
   -7.9369   -6.9753    0.0000 N   0  0  0  0  0  2  0  0  0  0  0  0
   -8.6869   -8.2744    0.0000 C   0  0  0  0  0  0  0  0  0  0  0  0
   -4.9697   -7.2872    0.0000 C   0  0  0  0  0  0  0  0  0  0  0  0
   -4.3596   -8.6575    0.0000 C   0  0  0  0  0  0  0  0  0  0  0  0
   -0.9110   -6.5380    0.0000 Si  0  0  0  0  0  4  0  0  0  0  0  0
   -0.0293   -5.3245    0.0000 O   0  0  0  0  0  0  0  0  0  0  0  0
   -0.6394   -3.9542    0.0000 C   0  0  0  0  0  0  0  0  0  0  0  0
   -1.2495   -2.5838    0.0000 C   0  0  0  0  0  0  0  0  0  0  0  0
   -1.8596   -1.2135    0.0000 C   0  0  0  0  0  0  0  0  0  0  0  0
   -2.7413    0.0000    0.0000 C   0  0  0  0  0  0  0  0  0  0  0  0
   -1.8596    1.2135    0.0000 C   0  0  0  0  0  0  0  0  0  0  0  0
   -0.4330    0.7500    0.0000 C   0  0  0  0  0  0  0  0  0  0  0  0
    0.8660    0.0000    0.0000 C   0  0  0  0  0  0  0  0  0  0  0  0
   -0.4330   -0.7500    0.0000 C   0  0  0  0  0  0  0  0  0  0  0  0
    0.1771   -2.1203    0.0000 C   0  0  0  0  0  0  0  0  0  0  0  0
    1.6325   -1.7574    0.0000 C   0  0  0  0  0  0  0  0  0  0  0  0
    2.6745   -2.8364    0.0000 O   0  0  0  0  0  0  0  0  0  0  0  0
    1.2191   -3.1993    0.0000 C   0  0  0  0  0  0  0  0  0  0  0  0
    0.8056   -4.6412    0.0000 N   0  0  0  0  0  0  0  0  0  0  0  0
    1.6911  -11.8883    0.0000 H   0  0  0  0  0  0  0  0  0  0  0  0
   -0.8927  -11.6168    0.0000 H   0  0  0  0  0  0  0  0  0  0  0  0
   -1.4608   -9.8467    0.0000 H   0  0  0  0  0  0  0  0  0  0  0  0
    0.4439   -7.5362    0.0000 H   0  0  0  0  0  0  0  0  0  0  0  0
   -2.5198   -9.0635    0.0000 H   0  0  0  0  0  0  0  0  0  0  0  0
   -3.5680   -8.2607    0.0000 H   0  0  0  0  0  0  0  0  0  0  0  0
   -2.2920   -5.8869    0.0000 H   0  0  0  0  0  0  0  0  0  0  0  0
   -3.4478   -3.6808    0.0000 H   0  0  0  0  0  0  0  0  0  0  0  0
   -2.0056   -4.9793    0.0000 H   0  0  0  0  0  0  0  0  0  0  0  0
   -4.3348   -4.0448    0.0000 H   0  0  0  0  0  0  0  0  0  0  0  0
   -5.9734   -3.5744    0.0000 H   0  0  0  0  0  0  0  0  0  0  0  0
   -7.8927   -4.7336    0.0000 H   0  0  0  0  0  0  0  0  0  0  0  0
   -7.2770   -8.8777    0.0000 H   0  0  0  0  0  0  0  0  0  0  0  0
   -9.4369   -9.5734    0.0000 H   0  0  0  0  0  0  0  0  0  0  0  0
   -9.9859   -7.5244    0.0000 H   0  0  0  0  0  0  0  0  0  0  0  0
   -7.9795   -8.8075    0.0000 H   0  0  0  0  0  0  0  0  0  0  0  0
   -5.2413   -9.8711    0.0000 H   0  0  0  0  0  0  0  0  0  0  0  0
   -2.8980   -8.9950    0.0000 H   0  0  0  0  0  0  0  0  0  0  0  0
   -1.8751   -5.3889    0.0000 H   0  0  0  0  0  0  0  0  0  0  0  0
    0.4010   -7.2652    0.0000 H   0  0  0  0  0  0  0  0  0  0  0  0
   -1.9251   -4.7268    0.0000 H   0  0  0  0  0  0  0  0  0  0  0  0
    0.8378   -3.6938    0.0000 H   0  0  0  0  0  0  0  0  0  0  0  0
    0.2277   -2.3235    0.0000 H   0  0  0  0  0  0  0  0  0  0  0  0
   -2.6198   -3.1939    0.0000 H   0  0  0  0  0  0  0  0  0  0  0  0
   -3.1586   -1.9635    0.0000 H   0  0  0  0  0  0  0  0  0  0  0  0
   -3.8560   -1.0037    0.0000 H   0  0  0  0  0  0  0  0  0  0  0  0
   -3.8560    1.0037    0.0000 H   0  0  0  0  0  0  0  0  0  0  0  0
   -3.1586    1.9635    0.0000 H   0  0  0  0  0  0  0  0  0  0  0  0
   -1.2495    2.5838    0.0000 H   0  0  0  0  0  0  0  0  0  0  0  0
    0.1771    2.1203    0.0000 H   0  0  0  0  0  0  0  0  0  0  0  0
    1.8302    1.1491    0.0000 H   0  0  0  0  0  0  0  0  0  0  0  0
    2.1780   -0.7271    0.0000 H   0  0  0  0  0  0  0  0  0  0  0  0
   -0.8265   -3.2351    0.0000 H   0  0  0  0  0  0  0  0  0  0  0  0
    2.2187   -0.3767    0.0000 H   0  0  0  0  0  0  0  0  0  0  0  0
    1.8476   -5.7202    0.0000 H   0  0  0  0  0  0  0  0  0  0  0  0
   -0.5188   -5.3455    0.0000 H   0  0  0  0  0  0  0  0  0  0  0  0
  1  2  2  3
  2  3  1  0
  3  4  1  0
  4  5  1  0
  5  6  1  0
  6  7  1  0
  6  8  1  0
  8  9  1  0
  9 10  1  0
 10 11  1  0
 10 12  1  0
 12 13  1  0
 10 14  1  0
 14 15  2  3
  4 16  1  0
 16 17  1  0
 17 18  1  0
 18 19  1  0
 19 20  1  0
 20 21  1  0
 21 22  1  0
 22 23  1  0
 23 24  1  0
 24 25  1  0
 25 26  1  0
 26 27  1  0
 27 28  1  0
 28 29  1  0
 29 30  1  0
 14  6  1  0
 25 20  1  0
 29 26  1  0
 25 23  1  0
 29 27  1  0
  1 31  1  0
  1 32  1  0
  3 33  1  0
  3 34  1  0
  4 35  1  0
  5 36  1  0
  5 37  1  0
  7 38  1  0
  7 39  1  0
  8 40  1  0
  8 41  1  0
  9 42  1  0
 11 43  1  0
 13 44  1  0
 13 45  1  0
 13 46  1  0
 15 47  1  0
 15 48  1  0
 16 49  1  0
 16 50  1  0
 18 51  1  0
 18 52  1  0
 19 53  1  0
 19 54  1  0
 20 55  1  0
 21 56  1  0
 21 57  1  0
 22 58  1  0
 22 59  1  0
 23 60  1  0
 24 61  1  0
 24 62  1  0
 26 63  1  0
 27 64  1  0
 30 65  1  0
 30 66  1  0
M  RAD  2  11   2  12   2
M  END
$$$$
