
     RDKit          2D

109115  0  0  0  0  0  0  0  0999 V2000
   -3.4330   -8.5442    0.0000 C   0  0  0  0  0  0  0  0  0  0  0  0
   -4.1830   -7.2452    0.0000 C   0  0  0  0  0  0  0  0  0  0  0  0
   -3.4330   -5.9462    0.0000 C   0  0  0  0  0  0  0  0  0  0  0  0
   -2.6830   -4.6471    0.0000 C   0  0  0  0  0  0  0  0  0  0  0  0
   -1.9330   -3.3481    0.0000 C   0  0  0  0  0  0  0  0  0  0  0  0
   -3.2321   -2.5981    0.0000 C   0  0  0  0  0  0  0  0  0  0  0  0
   -1.1830   -2.0490    0.0000 C   0  0  0  0  0  0  0  0  0  0  0  0
   -2.4821   -1.2990    0.0000 C   0  0  0  0  0  0  0  0  0  0  0  0
   -3.6956   -2.1807    0.0000 C   0  0  0  0  0  0  0  0  0  0  0  0
   -5.1628   -2.4926    0.0000 C   0  0  0  0  0  0  0  0  0  0  0  0
   -1.0951   -1.9586    0.0000 C   0  0  0  0  0  0  0  0  0  0  0  0
    0.2911   -1.3854    0.0000 C   0  0  0  0  0  0  0  0  0  0  0  0
    0.4859   -2.8727    0.0000 C   0  0  0  0  0  0  0  0  0  0  0  0
    0.6807   -4.3600    0.0000 O   0  0  0  0  0  0  0  0  0  0  0  0
    0.8660    0.0000    0.0000 C   0  0  0  0  0  0  0  0  0  0  0  0
   -0.4330    0.7500    0.0000 C   0  0  0  0  0  0  0  0  0  0  0  0
   -1.7321    0.0000    0.0000 C   0  0  0  0  0  0  0  0  0  0  0  0
   -1.5753    1.4918    0.0000 C   0  0  0  0  0  0  0  0  0  0  0  0
   -0.4262    2.4560    0.0000 C   0  0  0  0  0  0  0  0  0  0  0  0
   -2.0388    2.9184    0.0000 C   0  0  0  0  0  0  0  0  0  0  0  0
   -3.0425    4.0331    0.0000 C   0  0  0  0  0  0  0  0  0  0  0  0
   -4.4128    4.6432    0.0000 C   0  0  0  0  0  0  0  0  0  0  0  0
   -5.9128    4.6432    0.0000 C   0  0  0  0  0  0  0  0  0  0  0  0
   -7.2831    4.0331    0.0000 C   0  0  0  0  0  0  0  0  0  0  0  0
   -8.2868    2.9184    0.0000 C   0  0  0  0  0  0  0  0  0  0  0  0
   -9.7832    2.8137    0.0000 C   0  0  0  0  0  0  0  0  0  0  0  0
  -11.2795    2.7091    0.0000 C   0  0  0  0  0  0  0  0  0  0  0  0
  -12.7759    2.6045    0.0000 C   0  0  0  0  0  0  0  0  0  0  0  0
   -8.7503    1.4918    0.0000 C   0  0  0  0  0  0  0  0  0  0  0  0
   -8.5935    0.0000    0.0000 C   0  0  0  0  0  0  0  0  0  0  0  0
   -9.5170   -1.1820    0.0000 C   0  0  0  0  0  0  0  0  0  0  0  0
  -10.6991   -0.2585    0.0000 C   0  0  0  0  0  0  0  0  0  0  0  0
  -11.6225   -1.4405    0.0000 C   0  0  0  0  0  0  0  0  0  0  0  0
  -11.6225   -1.4405    0.0000 O   0  0  0  0  0  0  0  0  0  0  0  0
  -10.4405   -2.3640    0.0000 C   0  0  0  0  0  0  0  0  0  0  0  0
   -9.5378   -3.5620    0.0000 C   0  0  0  0  0  0  0  0  0  0  0  0
  -11.0266   -3.7448    0.0000 C   0  0  0  0  0  0  0  0  0  0  0  0
  -12.4882   -3.4074    0.0000 C   0  0  0  0  0  0  0  0  0  0  0  0
  -13.9497   -3.0699    0.0000 C   0  0  0  0  0  0  0  0  0  0  0  0
   -7.8435   -1.2990    0.0000 C   0  0  0  0  0  0  0  0  0  0  0  0
   -6.6300   -2.1807    0.0000 C   0  0  0  0  0  0  0  0  0  0  0  0
   -6.3695   -3.6579    0.0000 C   0  0  0  0  0  0  0  0  0  0  0  0
   -0.4330   -0.7500    0.0000 C   0  0  0  0  0  0  0  0  0  0  0  0
   -4.1830   -9.8433    0.0000 H   0  0  0  0  0  0  0  0  0  0  0  0
   -1.9330   -8.5442    0.0000 H   0  0  0  0  0  0  0  0  0  0  0  0
   -5.6830   -7.2452    0.0000 H   0  0  0  0  0  0  0  0  0  0  0  0
   -4.7321   -5.1962    0.0000 H   0  0  0  0  0  0  0  0  0  0  0  0
   -2.1340   -6.6962    0.0000 H   0  0  0  0  0  0  0  0  0  0  0  0
   -1.3840   -5.3971    0.0000 H   0  0  0  0  0  0  0  0  0  0  0  0
   -4.1249   -4.2337    0.0000 H   0  0  0  0  0  0  0  0  0  0  0  0
   -0.6340   -4.0981    0.0000 H   0  0  0  0  0  0  0  0  0  0  0  0
   -2.8187   -1.1562    0.0000 H   0  0  0  0  0  0  0  0  0  0  0  0
   -3.9821   -3.8971    0.0000 H   0  0  0  0  0  0  0  0  0  0  0  0
   -4.5311   -1.8481    0.0000 H   0  0  0  0  0  0  0  0  0  0  0  0
   -0.2391   -3.2148    0.0000 H   0  0  0  0  0  0  0  0  0  0  0  0
   -1.0205   -0.9617    0.0000 H   0  0  0  0  0  0  0  0  0  0  0  0
   -4.3058   -3.5510    0.0000 H   0  0  0  0  0  0  0  0  0  0  0  0
   -2.7930   -3.3787    0.0000 H   0  0  0  0  0  0  0  0  0  0  0  0
   -4.9800   -3.9814    0.0000 H   0  0  0  0  0  0  0  0  0  0  0  0
   -0.4980   -3.3346    0.0000 H   0  0  0  0  0  0  0  0  0  0  0  0
   -1.5220   -3.3965    0.0000 H   0  0  0  0  0  0  0  0  0  0  0  0
    1.7781   -1.5822    0.0000 H   0  0  0  0  0  0  0  0  0  0  0  0
   -0.9666   -3.2474    0.0000 H   0  0  0  0  0  0  0  0  0  0  0  0
    1.9732   -2.6779    0.0000 H   0  0  0  0  0  0  0  0  0  0  0  0
    2.0662   -4.9350    0.0000 H   0  0  0  0  0  0  0  0  0  0  0  0
    2.3660    0.0000    0.0000 H   0  0  0  0  0  0  0  0  0  0  0  0
    0.1047    2.1503    0.0000 H   0  0  0  0  0  0  0  0  0  0  0  0
   -0.1198    1.1290    0.0000 H   0  0  0  0  0  0  0  0  0  0  0  0
    0.5380    1.3069    0.0000 H   0  0  0  0  0  0  0  0  0  0  0  0
   -1.2431    3.7140    0.0000 H   0  0  0  0  0  0  0  0  0  0  0  0
    0.7229    3.4201    0.0000 H   0  0  0  0  0  0  0  0  0  0  0  0
   -0.6044    3.3570    0.0000 H   0  0  0  0  0  0  0  0  0  0  0  0
   -1.3812    4.2666    0.0000 H   0  0  0  0  0  0  0  0  0  0  0  0
   -1.7060    4.7141    0.0000 H   0  0  0  0  0  0  0  0  0  0  0  0
   -2.8078    5.5146    0.0000 H   0  0  0  0  0  0  0  0  0  0  0  0
   -3.4688    5.8089    0.0000 H   0  0  0  0  0  0  0  0  0  0  0  0
   -4.9747    6.0340    0.0000 H   0  0  0  0  0  0  0  0  0  0  0  0
   -6.2247    6.1104    0.0000 H   0  0  0  0  0  0  0  0  0  0  0  0
   -8.1648    5.2466    0.0000 H   0  0  0  0  0  0  0  0  0  0  0  0
   -8.9444    4.2666    0.0000 H   0  0  0  0  0  0  0  0  0  0  0  0
   -9.8878    4.3101    0.0000 H   0  0  0  0  0  0  0  0  0  0  0  0
   -9.8617    1.3158    0.0000 H   0  0  0  0  0  0  0  0  0  0  0  0
  -11.3841    4.2054    0.0000 H   0  0  0  0  0  0  0  0  0  0  0  0
  -11.3580    1.2112    0.0000 H   0  0  0  0  0  0  0  0  0  0  0  0
  -12.8805    4.1008    0.0000 H   0  0  0  0  0  0  0  0  0  0  0  0
  -12.8544    1.1065    0.0000 H   0  0  0  0  0  0  0  0  0  0  0  0
  -14.2722    2.4998    0.0000 H   0  0  0  0  0  0  0  0  0  0  0  0
  -10.0986    2.1493    0.0000 H   0  0  0  0  0  0  0  0  0  0  0  0
  -10.0748    0.7876    0.0000 H   0  0  0  0  0  0  0  0  0  0  0  0
  -10.0751    0.2346    0.0000 H   0  0  0  0  0  0  0  0  0  0  0  0
   -8.3350   -2.1055    0.0000 H   0  0  0  0  0  0  0  0  0  0  0  0
  -12.0694    0.3515    0.0000 H   0  0  0  0  0  0  0  0  0  0  0  0
  -12.8046   -0.5170    0.0000 H   0  0  0  0  0  0  0  0  0  0  0  0
  -10.2522   -2.0506    0.0000 H   0  0  0  0  0  0  0  0  0  0  0  0
  -12.9084   -2.2130    0.0000 H   0  0  0  0  0  0  0  0  0  0  0  0
   -8.0460   -3.4053    0.0000 H   0  0  0  0  0  0  0  0  0  0  0  0
   -9.0992   -4.9964    0.0000 H   0  0  0  0  0  0  0  0  0  0  0  0
  -11.1051   -5.2427    0.0000 H   0  0  0  0  0  0  0  0  0  0  0  0
  -12.8256   -4.8689    0.0000 H   0  0  0  0  0  0  0  0  0  0  0  0
  -13.0503   -2.0167    0.0000 H   0  0  0  0  0  0  0  0  0  0  0  0
  -14.2872   -4.5315    0.0000 H   0  0  0  0  0  0  0  0  0  0  0  0
  -13.6123   -1.6084    0.0000 H   0  0  0  0  0  0  0  0  0  0  0  0
  -15.4113   -2.7325    0.0000 H   0  0  0  0  0  0  0  0  0  0  0  0
   -9.2343   -1.8610    0.0000 H   0  0  0  0  0  0  0  0  0  0  0  0
   -8.0263   -2.7879    0.0000 H   0  0  0  0  0  0  0  0  0  0  0  0
   -7.6719   -3.2598    0.0000 H   0  0  0  0  0  0  0  0  0  0  0  0
   -7.8468   -3.9184    0.0000 H   0  0  0  0  0  0  0  0  0  0  0  0
   -4.8716   -3.5795    0.0000 H   0  0  0  0  0  0  0  0  0  0  0  0
   -6.1091   -5.1351    0.0000 H   0  0  0  0  0  0  0  0  0  0  0  0
  1  2  2  0
  2  3  1  0
  3  4  1  0
  4  5  1  0
  5  6  1  0
  5  7  1  0
  7  8  1  0
  8  9  1  0
  9 10  1  0
 10 11  1  0
 11 12  1  0
 12 13  1  0
 13 14  1  0
 12 15  1  0
 15 16  1  0
 16 17  1  0
 17 18  1  0
 18 19  1  0
 18 20  1  0
 20 21  1  0
 21 22  1  0
 22 23  1  0
 23 24  2  0
 24 25  1  0
 25 26  1  0
 26 27  1  0
 27 28  1  0
 25 29  1  0
 29 30  1  0
 30 31  1  0
 31 32  1  0
 32 33  1  0
 32 34  1  0
 34 35  1  0
 35 36  1  0
 36 37  1  0
 37 38  1  0
 38 39  1  0
 30 40  1  0
 40 41  1  0
 41 42  1  0
 17 43  1  0
 43  7  1  0
 17  8  1  0
 35 31  1  0
 41 10  1  0
 43 15  1  0
 43 16  1  0
 37 35  1  0
  1 44  1  0
  1 45  1  0
  2 46  1  0
  3 47  1  0
  3 48  1  0
  4 49  1  0
  4 50  1  0
  5 51  1  0
  6 52  1  0
  6 53  1  0
  6 54  1  0
  7 55  1  0
  8 56  1  0
  9 57  1  0
  9 58  1  0
 10 59  1  0
 11 60  1  0
 11 61  1  0
 12 62  1  0
 13 63  1  0
 13 64  1  0
 14 65  1  0
 15 66  1  0
 16 67  1  0
 18 68  1  0
 19 69  1  0
 19 70  1  0
 19 71  1  0
 20 72  1  0
 20 73  1  0
 21 74  1  0
 21 75  1  0
 22 76  1  0
 22 77  1  0
 23 78  1  0
 24 79  1  0
 25 80  1  0
 26 81  1  0
 26 82  1  0
 27 83  1  0
 27 84  1  0
 28 85  1  0
 28 86  1  0
 28 87  1  0
 29 88  1  0
 29 89  1  0
 30 90  1  0
 31 91  1  0
 32 92  1  0
 33 93  1  0
 33 94  1  0
 33 95  1  0
 36 96  1  0
 36 97  1  0
 37 98  1  0
 38 99  1  0
 38100  1  0
 39101  1  0
 39102  1  0
 39103  1  0
 40104  1  0
 40105  1  0
 41106  1  0
 42107  1  0
 42108  1  0
 42109  1  0
M  END
$$$$
