
     RDKit          2D

 41 43  0  0  0  0  0  0  0  0999 V2000
    3.7500   -3.8971    0.0000 C   0  0  0  0  0  0  0  0  0  0  0  0
    3.0000   -2.5981    0.0000 C   0  0  0  0  0  0  0  0  0  0  0  0
    1.5000   -2.5981    0.0000 N   0  0  0  0  0  0  0  0  0  0  0  0
    0.7500   -3.8971    0.0000 C   0  0  0  0  0  0  0  0  0  0  0  0
   -0.2537   -5.0118    0.0000 C   0  0  0  0  0  0  0  0  0  0  0  0
    0.4963   -6.3109    0.0000 C   0  0  0  0  0  0  0  0  0  0  0  0
   -0.8740   -6.9210    0.0000 C   0  0  0  0  0  0  0  0  0  0  0  0
    1.9635   -5.9990    0.0000 N   0  0  0  0  0  0  0  0  0  0  0  0
    2.1203   -4.5072    0.0000 N   0  0  0  0  0  0  0  0  0  0  0  0
    0.7500   -1.2990    0.0000 C   0  0  0  0  0  0  0  0  0  0  0  0
   -0.7500   -1.2990    0.0000 C   0  0  0  0  0  0  0  0  0  0  0  0
   -1.5000   -0.0000    0.0000 C   0  0  0  0  0  0  0  0  0  0  0  0
   -0.7500    1.2990    0.0000 S   0  0  0  0  0  0  0  0  0  0  0  0
    0.7500    1.2990    0.0000 N   0  0  0  0  0  0  0  0  0  0  0  0
    2.2500    1.2990    0.0000 C   0  0  0  0  0  0  0  0  0  0  0  0
    3.0000   -0.0000    0.0000 N   0  0  0  0  0  0  0  0  0  0  0  0
    2.2500   -1.2990    0.0000 C   0  0  0  0  0  0  0  0  0  0  0  0
    1.5000   -0.0000    0.0000 C   0  0  0  0  0  0  0  0  0  0  0  0
    5.2500   -3.8971    0.0000 H   0  0  0  0  0  0  0  0  0  0  0  0
    3.0000   -5.1962    0.0000 H   0  0  0  0  0  0  0  0  0  0  0  0
    3.9028   -1.4001    0.0000 H   0  0  0  0  0  0  0  0  0  0  0  0
   -0.5619   -3.1699    0.0000 H   0  0  0  0  0  0  0  0  0  0  0  0
   -1.2574   -3.8971    0.0000 H   0  0  0  0  0  0  0  0  0  0  0  0
   -0.9509   -5.3983    0.0000 H   0  0  0  0  0  0  0  0  0  0  0  0
    0.9598   -7.7375    0.0000 H   0  0  0  0  0  0  0  0  0  0  0  0
   -2.2443   -7.5311    0.0000 H   0  0  0  0  0  0  0  0  0  0  0  0
   -0.2639   -8.2913    0.0000 H   0  0  0  0  0  0  0  0  0  0  0  0
   -1.2846   -6.2377    0.0000 H   0  0  0  0  0  0  0  0  0  0  0  0
    3.0782   -7.0027    0.0000 H   0  0  0  0  0  0  0  0  0  0  0  0
    3.5622   -4.0938    0.0000 H   0  0  0  0  0  0  0  0  0  0  0  0
   -2.1595   -1.8121    0.0000 H   0  0  0  0  0  0  0  0  0  0  0  0
   -0.6715   -2.7970    0.0000 H   0  0  0  0  0  0  0  0  0  0  0  0
   -2.6491    0.9642    0.0000 H   0  0  0  0  0  0  0  0  0  0  0  0
   -2.6491   -0.9642    0.0000 H   0  0  0  0  0  0  0  0  0  0  0  0
    3.6595    1.8121    0.0000 H   0  0  0  0  0  0  0  0  0  0  0  0
    1.9895    2.7762    0.0000 H   0  0  0  0  0  0  0  0  0  0  0  0
    4.5000   -0.0000    0.0000 H   0  0  0  0  0  0  0  0  0  0  0  0
    2.3547   -2.7954    0.0000 H   0  0  0  0  0  0  0  0  0  0  0  0
    3.7116   -1.6364    0.0000 H   0  0  0  0  0  0  0  0  0  0  0  0
    2.8482   -0.6575    0.0000 H   0  0  0  0  0  0  0  0  0  0  0  0
    2.8482    0.6575    0.0000 H   0  0  0  0  0  0  0  0  0  0  0  0
  1  2  2  3
  2  3  1  0
  3  4  1  0
  4  5  1  0
  5  6  1  0
  6  7  1  0
  6  8  1  0
  8  9  1  0
  3 10  1  0
 10 11  1  0
 11 12  1  0
 12 13  1  0
 13 14  1  0
 14 15  1  0
 15 16  1  0
 16 17  1  0
 14 18  1  0
  9  4  1  0
 17 10  1  0
 18 10  1  0
  1 19  1  0
  1 20  1  0
  2 21  1  0
  4 22  1  0
  5 23  1  0
  5 24  1  0
  6 25  1  0
  7 26  1  0
  7 27  1  0
  7 28  1  0
  8 29  1  0
  9 30  1  0
 11 31  1  0
 11 32  1  0
 12 33  1  0
 12 34  1  0
 15 35  1  0
 15 36  1  0
 16 37  1  0
 17 38  1  0
 17 39  1  0
 18 40  1  0
 18 41  1  0
M  END
$$$$
