
     RDKit          2D

 54 55  0  0  0  0  0  0  0  0999 V2000
    3.7586    3.4472    0.0000 C   0  0  0  0  0  0  0  0  0  0  0  0
    2.7944    2.2981    0.0000 C   0  0  0  0  0  0  0  0  0  0  0  0
    1.8302    1.1491    0.0000 C   0  0  0  0  0  0  0  0  0  0  0  0
    0.8660    0.0000    0.0000 Si  0  0  0  0  0  4  0  0  0  0  0  0
   -0.4330    0.7500    0.0000 C   0  0  0  0  0  0  0  0  0  0  0  0
   -0.4330   -0.7500    0.0000 C   0  0  0  0  0  0  0  0  0  0  0  0
    0.0800   -2.1595    0.0000 C   0  0  0  0  0  0  0  0  0  0  0  0
    0.5930   -3.5691    0.0000 C   0  0  0  0  0  0  0  0  0  0  0  0
    1.1061   -4.9786    0.0000 C   0  0  0  0  0  0  0  0  0  0  0  0
   -0.8165   -4.0821    0.0000 C   0  0  0  0  0  0  0  0  0  0  0  0
   -2.2260   -4.5951    0.0000 C   0  0  0  0  0  0  0  0  0  0  0  0
   -3.6356   -5.1082    0.0000 C   0  0  0  0  0  0  0  0  0  0  0  0
   -5.0451   -5.6212    0.0000 C   0  0  0  0  0  0  0  0  0  0  0  0
   -6.4546   -6.1342    0.0000 C   0  0  0  0  0  0  0  0  0  0  0  0
   -7.8642   -6.6473    0.0000 C   0  0  0  0  0  0  0  0  0  0  0  0
   -9.2737   -7.1603    0.0000 C   0  0  0  0  0  0  0  0  0  0  0  0
   -7.3512   -8.0568    0.0000 C   0  0  0  0  0  0  0  0  0  0  0  0
   -1.7130   -6.0047    0.0000 C   0  0  0  0  0  0  0  0  0  0  0  0
   -1.7130   -7.5047    0.0000 C   0  0  0  0  0  0  0  0  0  0  0  0
   -3.0120   -6.7547    0.0000 C   0  0  0  0  0  0  0  0  0  0  0  0
    4.7228    4.5963    0.0000 H   0  0  0  0  0  0  0  0  0  0  0  0
    0.9095    2.1364    0.0000 H   0  0  0  0  0  0  0  0  0  0  0  0
    2.9793    0.1849    0.0000 H   0  0  0  0  0  0  0  0  0  0  0  0
    1.8534   -0.9207    0.0000 H   0  0  0  0  0  0  0  0  0  0  0  0
   -1.9102    1.0105    0.0000 H   0  0  0  0  0  0  0  0  0  0  0  0
   -0.1294    2.0654    0.0000 H   0  0  0  0  0  0  0  0  0  0  0  0
   -1.9102   -1.0105    0.0000 H   0  0  0  0  0  0  0  0  0  0  0  0
   -0.7830   -2.3588    0.0000 H   0  0  0  0  0  0  0  0  0  0  0  0
    1.3954   -1.8559    0.0000 H   0  0  0  0  0  0  0  0  0  0  0  0
    2.0026   -3.0560    0.0000 H   0  0  0  0  0  0  0  0  0  0  0  0
    1.6191   -6.3882    0.0000 H   0  0  0  0  0  0  0  0  0  0  0  0
    2.5156   -4.4656    0.0000 H   0  0  0  0  0  0  0  0  0  0  0  0
    0.2902   -5.5290    0.0000 H   0  0  0  0  0  0  0  0  0  0  0  0
   -0.4799   -5.0069    0.0000 H   0  0  0  0  0  0  0  0  0  0  0  0
   -1.2186   -3.2929    0.0000 H   0  0  0  0  0  0  0  0  0  0  0  0
   -2.7391   -3.1856    0.0000 H   0  0  0  0  0  0  0  0  0  0  0  0
   -4.1486   -3.6986    0.0000 H   0  0  0  0  0  0  0  0  0  0  0  0
   -3.5328   -6.0869    0.0000 H   0  0  0  0  0  0  0  0  0  0  0  0
   -5.5581   -4.2117    0.0000 H   0  0  0  0  0  0  0  0  0  0  0  0
   -4.5321   -7.0307    0.0000 H   0  0  0  0  0  0  0  0  0  0  0  0
   -6.9677   -4.7247    0.0000 H   0  0  0  0  0  0  0  0  0  0  0  0
   -5.7736   -7.4707    0.0000 H   0  0  0  0  0  0  0  0  0  0  0  0
   -8.3772   -5.2377    0.0000 H   0  0  0  0  0  0  0  0  0  0  0  0
  -10.6833   -7.6733    0.0000 H   0  0  0  0  0  0  0  0  0  0  0  0
   -9.7868   -5.7508    0.0000 H   0  0  0  0  0  0  0  0  0  0  0  0
   -8.9363   -8.6219    0.0000 H   0  0  0  0  0  0  0  0  0  0  0  0
   -6.8381   -9.4663    0.0000 H   0  0  0  0  0  0  0  0  0  0  0  0
   -8.6876   -8.7378    0.0000 H   0  0  0  0  0  0  0  0  0  0  0  0
   -5.8896   -7.7194    0.0000 H   0  0  0  0  0  0  0  0  0  0  0  0
   -0.2167   -6.1094    0.0000 H   0  0  0  0  0  0  0  0  0  0  0  0
   -0.2358   -7.7651    0.0000 H   0  0  0  0  0  0  0  0  0  0  0  0
   -2.2260   -8.9142    0.0000 H   0  0  0  0  0  0  0  0  0  0  0  0
   -3.9762   -7.9037    0.0000 H   0  0  0  0  0  0  0  0  0  0  0  0
   -4.2256   -5.8731    0.0000 H   0  0  0  0  0  0  0  0  0  0  0  0
  1  2  3  0
  2  3  1  0
  3  4  1  0
  4  5  1  0
  5  6  1  0
  6  7  1  0
  7  8  1  0
  8  9  1  0
  8 10  1  0
 10 11  1  0
 11 12  1  0
 12 13  1  0
 13 14  1  0
 14 15  1  0
 15 16  1  0
 15 17  1  0
 11 18  1  0
 18 19  1  0
 19 20  1  0
  6  4  1  0
 20 18  1  0
  1 21  1  0
  3 22  1  0
  3 23  1  0
  4 24  1  0
  5 25  1  0
  5 26  1  0
  6 27  1  0
  7 28  1  0
  7 29  1  0
  8 30  1  0
  9 31  1  0
  9 32  1  0
  9 33  1  0
 10 34  1  0
 10 35  1  0
 11 36  1  0
 12 37  1  0
 12 38  1  0
 13 39  1  0
 13 40  1  0
 14 41  1  0
 14 42  1  0
 15 43  1  0
 16 44  1  0
 16 45  1  0
 16 46  1  0
 17 47  1  0
 17 48  1  0
 17 49  1  0
 18 50  1  0
 19 51  1  0
 19 52  1  0
 20 53  1  0
 20 54  1  0
M  END
$$$$
