
     RDKit          2D

 71 76  0  0  0  0  0  0  0  0999 V2000
   11.0524   -8.7681    0.0000 C   0  0  0  0  0  0  0  0  0  0  0  0
    9.5524   -8.7681    0.0000 C   0  0  0  0  0  0  0  0  0  0  0  0
    8.8024   -7.4690    0.0000 C   0  0  0  0  0  0  0  0  0  0  0  0
    8.0524   -6.1700    0.0000 C   0  0  0  0  0  0  0  0  0  0  0  0
    7.3024   -4.8710    0.0000 C   0  0  0  0  0  0  0  0  0  0  0  0
    6.7534   -6.9200    0.0000 C   0  0  0  0  0  0  0  0  0  0  0  0
    5.4543   -7.6700    0.0000 C   0  0  0  0  0  0  0  0  0  0  0  0
    5.4543   -9.1700    0.0000 C   0  0  0  0  0  0  0  0  0  0  0  0
    4.1553   -6.9200    0.0000 C   0  0  0  0  0  0  0  0  0  0  0  0
    2.8563   -6.1700    0.0000 C   0  0  0  0  0  0  0  0  0  0  0  0
    1.5572   -5.4200    0.0000 C   0  0  0  0  0  0  0  0  0  0  0  0
    0.5930   -6.5691    0.0000 C   0  0  0  0  0  0  0  0  0  0  0  0
    0.0800   -5.1595    0.0000 C   0  0  0  0  0  0  0  0  0  0  0  0
    0.0800   -3.6595    0.0000 C   0  0  0  0  0  0  0  0  0  0  0  0
    0.0800   -2.1595    0.0000 C   0  0  0  0  0  0  0  0  0  0  0  0
   -1.3972   -1.8991    0.0000 C   0  0  0  0  0  0  0  0  0  0  0  0
   -2.8744   -2.1595    0.0000 O   0  0  0  0  0  0  0  0  0  0  0  0
   -4.1734   -1.4095    0.0000 C   0  0  0  0  0  0  0  0  0  0  0  0
   -4.6865    0.0000    0.0000 N   0  0  0  0  0  0  0  0  0  0  0  0
   -4.1734    1.4095    0.0000 C   0  0  0  0  0  0  0  0  0  0  0  0
   -2.8744    2.1595    0.0000 C   0  0  0  0  0  0  0  0  0  0  0  0
   -1.3972    1.8991    0.0000 C   0  0  0  0  0  0  0  0  0  0  0  0
   -1.5713    3.3889    0.0000 C   0  0  0  0  0  0  0  0  0  0  0  0
   -0.4330    0.7500    0.0000 C   0  0  0  0  0  0  0  0  0  0  0  0
    0.8660    0.0000    0.0000 C   0  0  0  0  0  0  0  0  0  0  0  0
    1.8302    1.1491    0.0000 C   0  0  0  0  0  0  0  0  0  0  0  0
    1.8302   -1.1491    0.0000 C   0  0  0  0  0  0  0  0  0  0  0  0
   -0.4330   -0.7500    0.0000 C   0  0  0  0  0  0  0  0  0  0  0  0
   -5.6507   -1.1491    0.0000 C   0  0  0  0  0  0  0  0  0  0  0  0
   -7.0602   -1.6621    0.0000 O   0  0  0  0  0  0  0  0  0  0  0  0
   11.8024  -10.0671    0.0000 H   0  0  0  0  0  0  0  0  0  0  0  0
   11.8024   -7.4690    0.0000 H   0  0  0  0  0  0  0  0  0  0  0  0
    8.8024  -10.0671    0.0000 H   0  0  0  0  0  0  0  0  0  0  0  0
    8.0951   -8.0021    0.0000 H   0  0  0  0  0  0  0  0  0  0  0  0
   10.1015   -6.7190    0.0000 H   0  0  0  0  0  0  0  0  0  0  0  0
    9.3515   -5.4200    0.0000 H   0  0  0  0  0  0  0  0  0  0  0  0
    6.5524   -3.5719    0.0000 H   0  0  0  0  0  0  0  0  0  0  0  0
    8.6015   -4.1210    0.0000 H   0  0  0  0  0  0  0  0  0  0  0  0
    6.4871   -5.2170    0.0000 H   0  0  0  0  0  0  0  0  0  0  0  0
    7.0994   -7.7353    0.0000 H   0  0  0  0  0  0  0  0  0  0  0  0
    6.2203   -6.2126    0.0000 H   0  0  0  0  0  0  0  0  0  0  0  0
    6.7534   -9.9200    0.0000 H   0  0  0  0  0  0  0  0  0  0  0  0
    4.1553   -9.9200    0.0000 H   0  0  0  0  0  0  0  0  0  0  0  0
    3.4053   -8.2190    0.0000 H   0  0  0  0  0  0  0  0  0  0  0  0
    4.9053   -5.6210    0.0000 H   0  0  0  0  0  0  0  0  0  0  0  0
    3.6063   -4.8710    0.0000 H   0  0  0  0  0  0  0  0  0  0  0  0
    2.3288   -7.4127    0.0000 H   0  0  0  0  0  0  0  0  0  0  0  0
    2.1701   -4.2172    0.0000 H   0  0  0  0  0  0  0  0  0  0  0  0
   -0.7060   -7.3191    0.0000 H   0  0  0  0  0  0  0  0  0  0  0  0
    1.3283   -7.7013    0.0000 H   0  0  0  0  0  0  0  0  0  0  0  0
   -1.3972   -5.4200    0.0000 H   0  0  0  0  0  0  0  0  0  0  0  0
   -1.0053   -3.7928    0.0000 H   0  0  0  0  0  0  0  0  0  0  0  0
    1.4200   -3.4950    0.0000 H   0  0  0  0  0  0  0  0  0  0  0  0
    1.5780   -2.0811    0.0000 H   0  0  0  0  0  0  0  0  0  0  0  0
   -1.5305   -2.9844    0.0000 H   0  0  0  0  0  0  0  0  0  0  0  0
   -4.6865   -2.8191    0.0000 H   0  0  0  0  0  0  0  0  0  0  0  0
   -5.3225    2.3737    0.0000 H   0  0  0  0  0  0  0  0  0  0  0  0
   -4.0828    3.0482    0.0000 H   0  0  0  0  0  0  0  0  0  0  0  0
   -2.7264    3.6522    0.0000 H   0  0  0  0  0  0  0  0  0  0  0  0
   -0.2046    2.8088    0.0000 H   0  0  0  0  0  0  0  0  0  0  0  0
   -1.7455    4.8788    0.0000 H   0  0  0  0  0  0  0  0  0  0  0  0
   -0.0815    3.5631    0.0000 H   0  0  0  0  0  0  0  0  0  0  0  0
   -3.0591    3.5805    0.0000 H   0  0  0  0  0  0  0  0  0  0  0  0
    0.5312    1.8991    0.0000 H   0  0  0  0  0  0  0  0  0  0  0  0
    2.7944    2.2981    0.0000 H   0  0  0  0  0  0  0  0  0  0  0  0
    3.0882    0.3321    0.0000 H   0  0  0  0  0  0  0  0  0  0  0  0
    0.9486    2.3626    0.0000 H   0  0  0  0  0  0  0  0  0  0  0  0
    2.7944   -2.2981    0.0000 H   0  0  0  0  0  0  0  0  0  0  0  0
    3.0882   -0.3321    0.0000 H   0  0  0  0  0  0  0  0  0  0  0  0
    1.1031   -2.4611    0.0000 H   0  0  0  0  0  0  0  0  0  0  0  0
   -8.2093   -0.6979    0.0000 H   0  0  0  0  0  0  0  0  0  0  0  0
  1  2  2  3
  2  3  1  0
  3  4  1  0
  4  5  1  0
  4  6  1  0
  6  7  1  0
  7  8  2  3
  7  9  1  0
  9 10  1  0
 10 11  1  0
 11 12  1  0
 12 13  1  0
 13 14  1  0
 14 15  1  0
 15 16  1  0
 16 17  1  0
 17 18  1  0
 18 19  1  0
 19 20  1  0
 20 21  1  0
 21 22  1  0
 22 23  1  0
 22 24  1  0
 24 25  1  0
 25 26  1  0
 25 27  1  0
 28 25  1  1
 20 29  1  0
 29 30  1  6
 13 11  1  0
 28 15  1  0
 28 16  1  0
 29 18  1  0
 29 19  1  0
 28 24  1  0
  1 31  1  0
  1 32  1  0
  2 33  1  0
  3 34  1  0
  3 35  1  0
  4 36  1  6
  5 37  1  0
  5 38  1  0
  5 39  1  0
  6 40  1  0
  6 41  1  0
  8 42  1  0
  8 43  1  0
  9 44  1  0
  9 45  1  0
 10 46  1  0
 10 47  1  0
 11 48  1  1
 12 49  1  0
 12 50  1  0
 13 51  1  1
 14 52  1  0
 14 53  1  0
 15 54  1  6
 16 55  1  1
 18 56  1  6
 20 57  1  6
 21 58  1  0
 21 59  1  0
 22 60  1  1
 23 61  1  0
 23 62  1  0
 23 63  1  0
 24 64  1  1
 26 65  1  0
 26 66  1  0
 26 67  1  0
 27 68  1  0
 27 69  1  0
 27 70  1  0
 30 71  1  0
M  END
$$$$
