
     RDKit          2D

 54 57  0  0  0  0  0  0  0  0999 V2000
    2.9013    0.9352    0.0000 C   0  0  0  0  0  0  0  0  0  0  0  0
    1.7286    0.0000    0.0000 C   0  0  0  0  0  0  0  0  0  0  0  0
    1.0777    1.3515    0.0000 C   0  0  0  0  0  0  0  0  0  0  0  0
   -0.3846    1.6852    0.0000 C   0  0  0  0  0  0  0  0  0  0  0  0
   -1.5574    0.7500    0.0000 C   0  0  0  0  0  0  0  0  0  0  0  0
   -1.5574   -0.7500    0.0000 C   0  0  0  0  0  0  0  0  0  0  0  0
   -0.3846   -1.6852    0.0000 C   0  0  0  0  0  0  0  0  0  0  0  0
    0.2662   -3.0367    0.0000 C   0  0  0  0  0  0  0  0  0  0  0  0
   -1.5574   -2.6205    0.0000 C   0  0  0  0  0  0  0  0  0  0  0  0
   -2.7301   -3.5557    0.0000 C   0  0  0  0  0  0  0  0  0  0  0  0
   -3.9029   -4.4909    0.0000 C   0  0  0  0  0  0  0  0  0  0  0  0
   -5.3248   -4.9687    0.0000 C   0  0  0  0  0  0  0  0  0  0  0  0
   -5.0276   -3.4984    0.0000 C   0  0  0  0  0  0  0  0  0  0  0  0
   -6.4239   -2.9504    0.0000 N   0  0  0  0  0  0  0  0  0  0  0  0
   -6.6474   -1.4672    0.0000 C   0  0  0  0  0  0  0  0  0  0  0  0
   -7.3648   -0.1498    0.0000 C   0  0  0  0  0  0  0  0  0  0  0  0
   -8.1470   -1.4298    0.0000 C   0  0  0  0  0  0  0  0  0  0  0  0
   -0.6222   -3.7932    0.0000 C   0  0  0  0  0  0  0  0  0  0  0  0
   -0.1444   -5.2151    0.0000 C   0  0  0  0  0  0  0  0  0  0  0  0
   -1.6147   -4.9179    0.0000 C   0  0  0  0  0  0  0  0  0  0  0  0
    1.0777   -1.3515    0.0000 C   0  0  0  0  0  0  0  0  0  0  0  0
    4.0741    1.8705    0.0000 H   0  0  0  0  0  0  0  0  0  0  0  0
    3.8366   -0.2375    0.0000 H   0  0  0  0  0  0  0  0  0  0  0  0
    2.4376    1.6899    0.0000 H   0  0  0  0  0  0  0  0  0  0  0  0
    3.0066   -0.7853    0.0000 H   0  0  0  0  0  0  0  0  0  0  0  0
    1.5415    2.1061    0.0000 H   0  0  0  0  0  0  0  0  0  0  0  0
   -0.7184    3.1476    0.0000 H   0  0  0  0  0  0  0  0  0  0  0  0
   -3.0496    0.5970    0.0000 H   0  0  0  0  0  0  0  0  0  0  0  0
   -2.2082    2.1015    0.0000 H   0  0  0  0  0  0  0  0  0  0  0  0
   -2.3681   -2.0120    0.0000 H   0  0  0  0  0  0  0  0  0  0  0  0
   -3.0496   -0.5970    0.0000 H   0  0  0  0  0  0  0  0  0  0  0  0
    1.0769   -4.2987    0.0000 H   0  0  0  0  0  0  0  0  0  0  0  0
   -0.3470   -3.5461    0.0000 H   0  0  0  0  0  0  0  0  0  0  0  0
    1.6869   -2.5555    0.0000 H   0  0  0  0  0  0  0  0  0  0  0  0
   -2.6286   -1.5705    0.0000 H   0  0  0  0  0  0  0  0  0  0  0  0
   -3.5154   -2.2777    0.0000 H   0  0  0  0  0  0  0  0  0  0  0  0
   -2.1065   -4.9199    0.0000 H   0  0  0  0  0  0  0  0  0  0  0  0
   -3.1855   -5.8083    0.0000 H   0  0  0  0  0  0  0  0  0  0  0  0
   -5.1012   -6.4519    0.0000 H   0  0  0  0  0  0  0  0  0  0  0  0
   -6.8243   -4.9313    0.0000 H   0  0  0  0  0  0  0  0  0  0  0  0
   -4.4073   -2.1327    0.0000 H   0  0  0  0  0  0  0  0  0  0  0  0
   -7.5966   -3.8856    0.0000 H   0  0  0  0  0  0  0  0  0  0  0  0
   -5.2255   -0.9894    0.0000 H   0  0  0  0  0  0  0  0  0  0  0  0
   -6.1921    0.7854    0.0000 H   0  0  0  0  0  0  0  0  0  0  0  0
   -8.4895    0.8427    0.0000 H   0  0  0  0  0  0  0  0  0  0  0  0
   -9.5433   -0.8817    0.0000 H   0  0  0  0  0  0  0  0  0  0  0  0
   -8.4442   -2.9000    0.0000 H   0  0  0  0  0  0  0  0  0  0  0  0
    0.8648   -3.5957    0.0000 H   0  0  0  0  0  0  0  0  0  0  0  0
    1.3550   -5.1740    0.0000 H   0  0  0  0  0  0  0  0  0  0  0  0
   -0.1818   -6.7146    0.0000 H   0  0  0  0  0  0  0  0  0  0  0  0
   -2.1627   -6.3142    0.0000 H   0  0  0  0  0  0  0  0  0  0  0  0
   -3.0458   -4.4687    0.0000 H   0  0  0  0  0  0  0  0  0  0  0  0
    2.4885   -1.8610    0.0000 H   0  0  0  0  0  0  0  0  0  0  0  0
    1.4407   -2.8069    0.0000 H   0  0  0  0  0  0  0  0  0  0  0  0
  1  2  1  0
  2  3  1  0
  3  4  2  0
  4  5  1  0
  5  6  1  0
  6  7  1  0
  7  8  1  0
  7  9  1  0
  9 10  1  0
 10 11  1  0
 11 12  1  0
 12 13  1  0
 13 14  1  0
 14 15  1  0
 15 16  1  0
 16 17  1  0
  9 18  1  0
 18 19  1  0
 19 20  1  0
  7 21  1  0
 21  2  1  0
 13 11  1  0
 17 15  1  0
 20 18  1  0
  1 22  1  0
  1 23  1  0
  1 24  1  0
  2 25  1  0
  3 26  1  0
  4 27  1  0
  5 28  1  0
  5 29  1  0
  6 30  1  0
  6 31  1  0
  8 32  1  0
  8 33  1  0
  8 34  1  0
  9 35  1  0
 10 36  1  0
 10 37  1  0
 11 38  1  0
 12 39  1  0
 12 40  1  0
 13 41  1  0
 14 42  1  0
 15 43  1  0
 16 44  1  0
 16 45  1  0
 17 46  1  0
 17 47  1  0
 18 48  1  0
 19 49  1  0
 19 50  1  0
 20 51  1  0
 20 52  1  0
 21 53  1  0
 21 54  1  0
M  END
$$$$
