
     RDKit          2D

 77 84  0  0  0  0  0  0  0  0999 V2000
   -5.1736    3.7218    0.0000 C   0  0  0  0  0  0  0  0  0  0  0  0
   -3.7182    3.3589    0.0000 C   0  0  0  0  0  0  0  0  0  0  0  0
   -2.2627    2.9960    0.0000 C   0  0  0  0  0  0  0  0  0  0  0  0
   -0.8073    2.6331    0.0000 N   0  0  0  0  0  0  0  0  0  0  0  0
   -4.0811    1.9035    0.0000 C   0  0  0  0  0  0  0  0  0  0  0  0
   -4.4439    0.4480    0.0000 C   0  0  0  0  0  0  0  0  0  0  0  0
   -4.8068   -1.0074    0.0000 C   0  0  0  0  0  0  0  0  0  0  0  0
   -5.1697   -2.4629    0.0000 C   0  0  0  0  0  0  0  0  0  0  0  0
   -5.5326   -3.9183    0.0000 C   0  0  0  0  0  0  0  0  0  0  0  0
   -6.3714   -5.1619    0.0000 C   0  0  0  0  0  0  0  0  0  0  0  0
   -5.2924   -6.2039    0.0000 O   0  0  0  0  0  0  0  0  0  0  0  0
   -7.0289   -3.8137    0.0000 C   0  0  0  0  0  0  0  0  0  0  0  0
   -8.4708   -4.2271    0.0000 C   0  0  0  0  0  0  0  0  0  0  0  0
   -9.9127   -4.6406    0.0000 C   0  0  0  0  0  0  0  0  0  0  0  0
  -11.3546   -5.0541    0.0000 C   0  0  0  0  0  0  0  0  0  0  0  0
  -10.9412   -6.4959    0.0000 C   0  0  0  0  0  0  0  0  0  0  0  0
  -10.5277   -7.9378    0.0000 O   0  0  0  0  0  0  0  0  0  0  0  0
  -12.3830   -6.9094    0.0000 C   0  0  0  0  0  0  0  0  0  0  0  0
  -13.8385   -6.5465    0.0000 C   0  0  0  0  0  0  0  0  0  0  0  0
  -14.4486   -7.9168    0.0000 C   0  0  0  0  0  0  0  0  0  0  0  0
  -12.7965   -5.4675    0.0000 C   0  0  0  0  0  0  0  0  0  0  0  0
   -3.3514   -1.3703    0.0000 C   0  0  0  0  0  0  0  0  0  0  0  0
   -2.7413    0.0000    0.0000 C   0  0  0  0  0  0  0  0  0  0  0  0
   -1.8596    1.2135    0.0000 C   0  0  0  0  0  0  0  0  0  0  0  0
   -0.4330    0.7500    0.0000 C   0  0  0  0  0  0  0  0  0  0  0  0
    0.8660    0.0000    0.0000 O   0  0  0  0  0  0  0  0  0  0  0  0
   -0.4330   -0.7500    0.0000 C   0  0  0  0  0  0  0  0  0  0  0  0
   -1.8596   -1.2135    0.0000 N   0  0  0  0  0  0  0  0  0  0  0  0
   -5.8994    0.8109    0.0000 C   0  0  0  0  0  0  0  0  0  0  0  0
   -6.9414   -0.2681    0.0000 C   0  0  0  0  0  0  0  0  0  0  0  0
   -7.3548    1.1738    0.0000 C   0  0  0  0  0  0  0  0  0  0  0  0
   -6.3128    2.2528    0.0000 C   0  0  0  0  0  0  0  0  0  0  0  0
   -7.1945    3.4663    0.0000 C   0  0  0  0  0  0  0  0  0  0  0  0
   -6.5740    4.2594    0.0000 H   0  0  0  0  0  0  0  0  0  0  0  0
   -4.8107    5.1772    0.0000 H   0  0  0  0  0  0  0  0  0  0  0  0
   -5.5479    3.0179    0.0000 H   0  0  0  0  0  0  0  0  0  0  0  0
   -3.3553    4.8143    0.0000 H   0  0  0  0  0  0  0  0  0  0  0  0
   -1.8998    4.4515    0.0000 H   0  0  0  0  0  0  0  0  0  0  0  0
   -2.6256    1.5406    0.0000 H   0  0  0  0  0  0  0  0  0  0  0  0
    0.2347    3.7121    0.0000 H   0  0  0  0  0  0  0  0  0  0  0  0
   -0.1997    1.5809    0.0000 H   0  0  0  0  0  0  0  0  0  0  0  0
   -5.0465    2.4169    0.0000 H   0  0  0  0  0  0  0  0  0  0  0  0
   -2.6256    1.5406    0.0000 H   0  0  0  0  0  0  0  0  0  0  0  0
   -2.9439    0.4481    0.0000 H   0  0  0  0  0  0  0  0  0  0  0  0
   -6.2956   -1.1904    0.0000 H   0  0  0  0  0  0  0  0  0  0  0  0
   -6.6252   -2.1000    0.0000 H   0  0  0  0  0  0  0  0  0  0  0  0
   -3.7694   -3.0005    0.0000 H   0  0  0  0  0  0  0  0  0  0  0  0
   -4.1623   -4.5284    0.0000 H   0  0  0  0  0  0  0  0  0  0  0  0
   -7.4684   -6.1849    0.0000 H   0  0  0  0  0  0  0  0  0  0  0  0
   -5.6553   -7.6593    0.0000 H   0  0  0  0  0  0  0  0  0  0  0  0
   -7.3664   -2.3521    0.0000 H   0  0  0  0  0  0  0  0  0  0  0  0
   -8.8843   -2.7853    0.0000 H   0  0  0  0  0  0  0  0  0  0  0  0
   -8.2362   -5.7087    0.0000 H   0  0  0  0  0  0  0  0  0  0  0  0
  -10.3262   -3.1987    0.0000 H   0  0  0  0  0  0  0  0  0  0  0  0
   -9.3266   -6.0213    0.0000 H   0  0  0  0  0  0  0  0  0  0  0  0
  -11.7681   -3.6122    0.0000 H   0  0  0  0  0  0  0  0  0  0  0  0
   -9.4596   -6.2613    0.0000 H   0  0  0  0  0  0  0  0  0  0  0  0
  -11.5697   -9.0169    0.0000 H   0  0  0  0  0  0  0  0  0  0  0  0
  -12.1743   -8.3948    0.0000 H   0  0  0  0  0  0  0  0  0  0  0  0
  -15.0820   -5.7077    0.0000 H   0  0  0  0  0  0  0  0  0  0  0  0
  -15.0587   -9.2872    0.0000 H   0  0  0  0  0  0  0  0  0  0  0  0
  -15.8189   -7.3067    0.0000 H   0  0  0  0  0  0  0  0  0  0  0  0
  -13.1629   -8.6894    0.0000 H   0  0  0  0  0  0  0  0  0  0  0  0
  -13.5691   -4.1818    0.0000 H   0  0  0  0  0  0  0  0  0  0  0  0
   -3.2728   -2.8683    0.0000 H   0  0  0  0  0  0  0  0  0  0  0  0
   -3.8202    1.0420    0.0000 H   0  0  0  0  0  0  0  0  0  0  0  0
   -3.1586    1.9635    0.0000 H   0  0  0  0  0  0  0  0  0  0  0  0
   -0.9360    2.3955    0.0000 H   0  0  0  0  0  0  0  0  0  0  0  0
    0.1771    2.1203    0.0000 H   0  0  0  0  0  0  0  0  0  0  0  0
    0.1771   -2.1203    0.0000 H   0  0  0  0  0  0  0  0  0  0  0  0
   -6.3795   -1.6589    0.0000 H   0  0  0  0  0  0  0  0  0  0  0  0
   -8.2896   -0.9257    0.0000 H   0  0  0  0  0  0  0  0  0  0  0  0
   -8.8103    1.5367    0.0000 H   0  0  0  0  0  0  0  0  0  0  0  0
   -4.9646    2.9103    0.0000 H   0  0  0  0  0  0  0  0  0  0  0  0
   -8.0762    4.6798    0.0000 H   0  0  0  0  0  0  0  0  0  0  0  0
   -6.0975    4.4893    0.0000 H   0  0  0  0  0  0  0  0  0  0  0  0
   -8.4080    2.5846    0.0000 H   0  0  0  0  0  0  0  0  0  0  0  0
  1  2  1  0
  2  3  1  0
  3  4  1  0
  2  5  1  0
  5  6  1  0
  6  7  1  0
  7  8  1  0
  8  9  1  0
  9 10  1  0
 10 11  1  0
 10 12  1  0
 12 13  1  0
 13 14  1  0
 14 15  1  0
 15 16  1  0
 16 17  1  0
 16 18  1  0
 18 19  1  0
 19 20  1  0
 19 21  1  0
  7 22  1  0
 22 23  1  0
 23 24  1  0
 24 25  1  0
 25 26  1  0
 26 27  1  0
 27 28  1  0
  6 29  1  0
 29 30  1  0
 30 31  1  0
 31 32  1  0
 32 33  1  0
 12  9  1  0
 21 15  1  0
 28 22  1  0
 31 29  1  0
 21 18  1  0
 28 23  1  0
 32 29  1  0
 27 25  1  0
  1 34  1  0
  1 35  1  0
  1 36  1  0
  2 37  1  0
  3 38  1  0
  3 39  1  0
  4 40  1  0
  4 41  1  0
  5 42  1  0
  5 43  1  0
  6 44  1  0
  7 45  1  0
  8 46  1  0
  8 47  1  0
  9 48  1  0
 10 49  1  0
 11 50  1  0
 12 51  1  0
 13 52  1  0
 13 53  1  0
 14 54  1  0
 14 55  1  0
 15 56  1  0
 16 57  1  0
 17 58  1  0
 18 59  1  0
 19 60  1  0
 20 61  1  0
 20 62  1  0
 20 63  1  0
 21 64  1  0
 22 65  1  0
 23 66  1  0
 24 67  1  0
 24 68  1  0
 25 69  1  0
 27 70  1  0
 30 71  1  0
 30 72  1  0
 31 73  1  0
 32 74  1  0
 33 75  1  0
 33 76  1  0
 33 77  1  0
M  END
$$$$
