
     RDKit          2D

 83 93  0  0  0  0  0  0  0  0999 V2000
   -3.0018   -7.2444    0.0000 C   0  0  0  0  0  0  0  0  0  0  0  0
   -2.6136   -5.7956    0.0000 C   0  0  0  0  0  0  0  0  0  0  0  0
   -2.2253   -4.3467    0.0000 C   0  0  0  0  0  0  0  0  0  0  0  0
   -1.8371   -2.8978    0.0000 C   0  0  0  0  0  0  0  0  0  0  0  0
   -1.4489   -1.4489    0.0000 C   0  0  0  0  0  0  0  0  0  0  0  0
   -2.5095   -0.3882    0.0000 C   0  0  0  0  0  0  0  0  0  0  0  0
   -1.0607    0.0000    0.0000 C   0  0  0  0  0  0  0  0  0  0  0  0
   -0.0000   -1.0607    0.0000 C   0  0  0  0  0  0  0  0  0  0  0  0
    1.0607    0.0000    0.0000 O   0  0  0  0  0  0  0  0  0  0  0  0
    0.0000    1.0607    0.0000 C   0  0  0  0  0  0  0  0  0  0  0  0
    0.7500    2.3597    0.0000 C   0  0  0  0  0  0  0  0  0  0  0  0
    0.0000    3.6587    0.0000 C   0  0  0  0  0  0  0  0  0  0  0  0
   -0.7500    4.9578    0.0000 C   0  0  0  0  0  0  0  0  0  0  0  0
   -1.5000    6.2568    0.0000 C   0  0  0  0  0  0  0  0  0  0  0  0
   -3.0000    6.2568    0.0000 C   0  0  0  0  0  0  0  0  0  0  0  0
   -4.4095    6.7698    0.0000 C   0  0  0  0  0  0  0  0  0  0  0  0
   -5.8191    7.2829    0.0000 C   0  0  0  0  0  0  0  0  0  0  0  0
   -7.2286    7.7959    0.0000 C   0  0  0  0  0  0  0  0  0  0  0  0
   -7.4114    9.2847    0.0000 N   0  0  0  0  0  0  0  0  0  0  0  0
   -6.0520    9.9186    0.0000 C   0  0  0  0  0  0  0  0  0  0  0  0
   -5.3060    8.6924    0.0000 C   0  0  0  0  0  0  0  0  0  0  0  0
   -3.9466    9.3263    0.0000 C   0  0  0  0  0  0  0  0  0  0  0  0
   -6.4198    8.5710    0.0000 C   0  0  0  0  0  0  0  0  0  0  0  0
   -8.1251    9.7185    0.0000 C   0  0  0  0  0  0  0  0  0  0  0  0
   -3.7500    4.9578    0.0000 C   0  0  0  0  0  0  0  0  0  0  0  0
   -5.2172    4.6459    0.0000 C   0  0  0  0  0  0  0  0  0  0  0  0
   -5.3740    3.1541    0.0000 C   0  0  0  0  0  0  0  0  0  0  0  0
   -4.0037    2.5440    0.0000 C   0  0  0  0  0  0  0  0  0  0  0  0
   -4.7537    1.2450    0.0000 C   0  0  0  0  0  0  0  0  0  0  0  0
   -3.0000    3.6587    0.0000 C   0  0  0  0  0  0  0  0  0  0  0  0
   -1.5000    3.6587    0.0000 C   0  0  0  0  0  0  0  0  0  0  0  0
   -0.7500    2.3597    0.0000 C   0  0  0  0  0  0  0  0  0  0  0  0
   -3.6742   -3.9584    0.0000 C   0  0  0  0  0  0  0  0  0  0  0  0
   -4.0061   -4.7797    0.0000 Br  0  0  0  0  0  0  0  0  0  0  0  0
   -5.1231   -3.5702    0.0000 C   0  0  0  0  0  0  0  0  0  0  0  0
   -6.5720   -3.1820    0.0000 N   0  0  0  0  0  0  0  0  0  0  0  0
   -7.6327   -4.2426    0.0000 S   0  0  0  0  0  0  0  0  0  0  0  0
   -9.0816   -3.8544    0.0000 S   0  0  0  0  0  0  0  0  0  0  0  0
   -3.3900   -8.6933    0.0000 H   0  0  0  0  0  0  0  0  0  0  0  0
   -1.5529   -7.6327    0.0000 H   0  0  0  0  0  0  0  0  0  0  0  0
   -4.4507   -6.8562    0.0000 H   0  0  0  0  0  0  0  0  0  0  0  0
   -1.1647   -6.1838    0.0000 H   0  0  0  0  0  0  0  0  0  0  0  0
   -3.4907   -5.6723    0.0000 H   0  0  0  0  0  0  0  0  0  0  0  0
   -0.7765   -4.7349    0.0000 H   0  0  0  0  0  0  0  0  0  0  0  0
   -0.3882   -3.2860    0.0000 H   0  0  0  0  0  0  0  0  0  0  0  0
   -3.2279   -2.3358    0.0000 H   0  0  0  0  0  0  0  0  0  0  0  0
   -3.7383   -1.2486    0.0000 H   0  0  0  0  0  0  0  0  0  0  0  0
   -2.7957    1.0842    0.0000 H   0  0  0  0  0  0  0  0  0  0  0  0
    0.7500   -2.3597    0.0000 H   0  0  0  0  0  0  0  0  0  0  0  0
    2.2500    2.3597    0.0000 H   0  0  0  0  0  0  0  0  0  0  0  0
   -1.3234    4.4040    0.0000 H   0  0  0  0  0  0  0  0  0  0  0  0
   -1.7605    7.7340    0.0000 H   0  0  0  0  0  0  0  0  0  0  0  0
   -0.0905    6.7698    0.0000 H   0  0  0  0  0  0  0  0  0  0  0  0
   -2.5614    7.6913    0.0000 H   0  0  0  0  0  0  0  0  0  0  0  0
   -3.7285    8.1063    0.0000 H   0  0  0  0  0  0  0  0  0  0  0  0
   -5.5244    5.7663    0.0000 H   0  0  0  0  0  0  0  0  0  0  0  0
   -6.3321    5.8733    0.0000 H   0  0  0  0  0  0  0  0  0  0  0  0
   -8.5881    7.1620    0.0000 H   0  0  0  0  0  0  0  0  0  0  0  0
   -8.8968    9.4934    0.0000 H   0  0  0  0  0  0  0  0  0  0  0  0
   -6.4904   11.3531    0.0000 H   0  0  0  0  0  0  0  0  0  0  0  0
   -4.9730   10.9607    0.0000 H   0  0  0  0  0  0  0  0  0  0  0  0
   -2.5871    9.9603    0.0000 H   0  0  0  0  0  0  0  0  0  0  0  0
   -4.4101   10.7529    0.0000 H   0  0  0  0  0  0  0  0  0  0  0  0
   -3.0025    8.1607    0.0000 H   0  0  0  0  0  0  0  0  0  0  0  0
   -6.7419   10.7052    0.0000 H   0  0  0  0  0  0  0  0  0  0  0  0
   -9.4616   10.3995    0.0000 H   0  0  0  0  0  0  0  0  0  0  0  0
   -7.7877   11.1800    0.0000 H   0  0  0  0  0  0  0  0  0  0  0  0
   -8.6382    8.3089    0.0000 H   0  0  0  0  0  0  0  0  0  0  0  0
   -4.8991    5.9219    0.0000 H   0  0  0  0  0  0  0  0  0  0  0  0
   -5.7303    6.0554    0.0000 H   0  0  0  0  0  0  0  0  0  0  0  0
   -6.7172    4.6459    0.0000 H   0  0  0  0  0  0  0  0  0  0  0  0
   -6.8412    3.4660    0.0000 H   0  0  0  0  0  0  0  0  0  0  0  0
   -6.0080    1.7947    0.0000 H   0  0  0  0  0  0  0  0  0  0  0  0
   -2.7902    1.6623    0.0000 H   0  0  0  0  0  0  0  0  0  0  0  0
   -5.5037   -0.0541    0.0000 H   0  0  0  0  0  0  0  0  0  0  0  0
   -6.1345    1.8310    0.0000 H   0  0  0  0  0  0  0  0  0  0  0  0
   -3.3729    0.6589    0.0000 H   0  0  0  0  0  0  0  0  0  0  0  0
   -2.2274    2.3730    0.0000 H   0  0  0  0  0  0  0  0  0  0  0  0
   -3.4655   -2.4730    0.0000 H   0  0  0  0  0  0  0  0  0  0  0  0
   -5.5114   -5.0191    0.0000 H   0  0  0  0  0  0  0  0  0  0  0  0
   -4.7349   -2.1213    0.0000 H   0  0  0  0  0  0  0  0  0  0  0  0
   -6.9602   -1.7331    0.0000 H   0  0  0  0  0  0  0  0  0  0  0  0
  -10.1422   -4.9151    0.0000 H   0  0  0  0  0  0  0  0  0  0  0  0
  1  2  1  0
  2  3  1  0
  3  4  1  0
  4  5  1  0
  5  6  1  0
  6  7  1  0
  7  8  1  0
  8  9  1  0
  9 10  1  0
 10 11  1  0
 11 12  1  0
 12 13  1  0
 13 14  1  0
 14 15  1  0
 15 16  1  0
 16 17  1  0
 17 18  1  0
 18 19  1  0
 19 20  1  0
 20 21  1  0
 21 22  1  0
 21 23  1  0
 23 24  1  0
 15 25  1  0
 25 26  1  0
 26 27  1  0
 27 28  1  0
 28 29  1  0
 28 30  1  0
 30 31  1  0
 31 32  1  0
  3 33  1  0
 33 34  1  0
 33 35  1  0
 35 36  1  0
 36 37  1  0
 37 38  1  0
  7  5  1  0
 32 10  1  0
  8  5  1  0
 32 11  1  0
 10  7  1  0
 31 12  1  0
 32 12  1  0
 31 13  1  0
 21 17  1  0
 30 25  1  0
 23 18  1  0
  1 39  1  0
  1 40  1  0
  1 41  1  0
  2 42  1  0
  2 43  1  0
  3 44  1  0
  4 45  1  0
  4 46  1  0
  6 47  1  0
  6 48  1  0
  8 49  1  0
 11 50  1  0
 13 51  1  0
 14 52  1  0
 14 53  1  0
 15 54  1  0
 16 55  1  0
 16 56  1  0
 17 57  1  0
 18 58  1  0
 19 59  1  0
 20 60  1  0
 20 61  1  0
 22 62  1  0
 22 63  1  0
 22 64  1  0
 23 65  1  0
 24 66  1  0
 24 67  1  0
 24 68  1  0
 25 69  1  0
 26 70  1  0
 26 71  1  0
 27 72  1  0
 27 73  1  0
 28 74  1  0
 29 75  1  0
 29 76  1  0
 29 77  1  0
 30 78  1  0
 33 79  1  0
 35 80  1  0
 35 81  1  0
 36 82  1  0
 38 83  1  0
M  END
$$$$
