
     RDKit          2D

 51 54  0  0  0  0  0  0  0  0999 V2000
  -12.3253    5.2500    0.0000 C   0  0  0  0  0  0  0  0  0  0  0  0
  -11.0263    4.5000    0.0000 C   0  0  0  0  0  0  0  0  0  0  0  0
   -9.7272    3.7500    0.0000 C   0  0  0  0  0  0  0  0  0  0  0  0
   -8.4282    3.0000    0.0000 C   0  0  0  0  0  0  0  0  0  0  0  0
   -7.1292    2.2500    0.0000 C   0  0  0  0  0  0  0  0  0  0  0  0
   -5.8301    1.5000    0.0000 C   0  0  0  0  0  0  0  0  0  0  0  0
   -4.5311    0.7500    0.0000 C   0  0  0  0  0  0  0  0  0  0  0  0
   -3.2321    1.5000    0.0000 C   0  0  0  0  0  0  0  0  0  0  0  0
   -1.9330    0.7500    0.0000 N   0  0  0  0  0  0  0  0  0  0  0  0
   -0.4330    0.7500    0.0000 C   0  0  0  0  0  0  0  0  0  0  0  0
    0.8660    0.0000    0.0000 O   0  0  0  0  0  0  0  0  0  0  0  0
   -0.4330   -0.7500    0.0000 C   0  0  0  0  0  0  0  0  0  0  0  0
   -1.9330   -0.7500    0.0000 C   0  0  0  0  0  0  0  0  0  0  0  0
   -3.2321   -1.5000    0.0000 C   0  0  0  0  0  0  0  0  0  0  0  0
   -3.2321   -3.0000    0.0000 O   0  0  0  0  0  0  0  0  0  0  0  0
   -4.5311   -3.7500    0.0000 C   0  0  0  0  0  0  0  0  0  0  0  0
   -5.4953   -2.6009    0.0000 Cl  0  0  0  0  0  0  0  0  0  0  0  0
   -5.4953   -4.8991    0.0000 C   0  0  0  0  0  0  0  0  0  0  0  0
   -4.0181   -5.1595    0.0000 C   0  0  0  0  0  0  0  0  0  0  0  0
   -4.0181   -6.6595    0.0000 C   0  0  0  0  0  0  0  0  0  0  0  0
   -4.0181   -8.1595    0.0000 C   0  0  0  0  0  0  0  0  0  0  0  0
   -4.0181   -9.6595    0.0000 C   0  0  0  0  0  0  0  0  0  0  0  0
   -4.5311   -0.7500    0.0000 C   0  0  0  0  0  0  0  0  0  0  0  0
  -13.6244    6.0000    0.0000 H   0  0  0  0  0  0  0  0  0  0  0  0
  -13.0753    3.9510    0.0000 H   0  0  0  0  0  0  0  0  0  0  0  0
  -11.5753    6.5490    0.0000 H   0  0  0  0  0  0  0  0  0  0  0  0
  -11.7763    3.2010    0.0000 H   0  0  0  0  0  0  0  0  0  0  0  0
  -10.2763    5.7990    0.0000 H   0  0  0  0  0  0  0  0  0  0  0  0
   -8.9772    5.0490    0.0000 H   0  0  0  0  0  0  0  0  0  0  0  0
  -10.4772    2.4510    0.0000 H   0  0  0  0  0  0  0  0  0  0  0  0
   -9.1782    1.7010    0.0000 H   0  0  0  0  0  0  0  0  0  0  0  0
   -7.6782    4.2990    0.0000 H   0  0  0  0  0  0  0  0  0  0  0  0
   -6.3792    3.5490    0.0000 H   0  0  0  0  0  0  0  0  0  0  0  0
   -7.8792    0.9510    0.0000 H   0  0  0  0  0  0  0  0  0  0  0  0
   -5.0801    2.7990    0.0000 H   0  0  0  0  0  0  0  0  0  0  0  0
   -6.5801    0.2010    0.0000 H   0  0  0  0  0  0  0  0  0  0  0  0
   -3.2321    3.0000    0.0000 H   0  0  0  0  0  0  0  0  0  0  0  0
   -0.0448    2.1989    0.0000 H   0  0  0  0  0  0  0  0  0  0  0  0
   -0.0448   -2.1989    0.0000 H   0  0  0  0  0  0  0  0  0  0  0  0
   -1.5448   -2.1989    0.0000 H   0  0  0  0  0  0  0  0  0  0  0  0
   -6.7943   -4.1491    0.0000 H   0  0  0  0  0  0  0  0  0  0  0  0
   -6.1082   -6.1019    0.0000 H   0  0  0  0  0  0  0  0  0  0  0  0
   -2.5408   -4.8991    0.0000 H   0  0  0  0  0  0  0  0  0  0  0  0
   -2.5181   -6.6595    0.0000 H   0  0  0  0  0  0  0  0  0  0  0  0
   -5.3580   -6.8241    0.0000 H   0  0  0  0  0  0  0  0  0  0  0  0
   -5.5181   -8.1595    0.0000 H   0  0  0  0  0  0  0  0  0  0  0  0
   -2.5181   -8.1595    0.0000 H   0  0  0  0  0  0  0  0  0  0  0  0
   -4.0181  -11.1595    0.0000 H   0  0  0  0  0  0  0  0  0  0  0  0
   -2.5181   -9.6595    0.0000 H   0  0  0  0  0  0  0  0  0  0  0  0
   -5.5181   -9.6595    0.0000 H   0  0  0  0  0  0  0  0  0  0  0  0
   -5.8301   -1.5000    0.0000 H   0  0  0  0  0  0  0  0  0  0  0  0
  1  2  1  0
  2  3  1  0
  3  4  1  0
  4  5  1  0
  5  6  1  0
  6  7  1  0
  7  8  2  0
  8  9  1  0
  9 10  1  0
 10 11  1  0
 11 12  1  0
 12 13  1  0
 13 14  1  0
 14 15  1  0
 15 16  1  0
 16 17  1  0
 16 18  1  0
 18 19  1  0
 19 20  1  0
 20 21  1  0
 21 22  1  0
 14 23  2  0
 23  7  1  0
 13  9  1  0
 19 16  1  0
 12 10  1  0
  1 24  1  0
  1 25  1  0
  1 26  1  0
  2 27  1  0
  2 28  1  0
  3 29  1  0
  3 30  1  0
  4 31  1  0
  4 32  1  0
  5 33  1  0
  5 34  1  0
  6 35  1  0
  6 36  1  0
  8 37  1  0
 10 38  1  0
 12 39  1  0
 13 40  1  0
 18 41  1  0
 18 42  1  0
 19 43  1  0
 20 44  1  0
 20 45  1  0
 21 46  1  0
 21 47  1  0
 22 48  1  0
 22 49  1  0
 22 50  1  0
 23 51  1  0
M  END
$$$$
