
     RDKit          2D

103110  0  0  0  0  0  0  0  0999 V2000
   -0.6340    2.5981    0.0000 C   0  0  0  0  0  0  0  0  0  0  0  0
    0.8660    2.5981    0.0000 C   0  0  0  0  0  0  0  0  0  0  0  0
    1.6160    1.2990    0.0000 C   0  0  0  0  0  0  0  0  0  0  0  0
    3.1160    1.2990    0.0000 C   0  0  0  0  0  0  0  0  0  0  0  0
    3.8660   -0.0000    0.0000 C   0  0  0  0  0  0  0  0  0  0  0  0
    3.1160   -1.2990    0.0000 C   0  0  0  0  0  0  0  0  0  0  0  0
    1.6160   -1.2990    0.0000 C   0  0  0  0  0  0  0  0  0  0  0  0
    0.8660    0.0000    0.0000 C   0  0  0  0  0  0  0  0  0  0  0  0
   -0.4330    0.7500    0.0000 C   0  0  0  0  0  0  0  0  0  0  0  0
   -1.7321    0.0000    0.0000 C   0  0  0  0  0  0  0  0  0  0  0  0
   -2.6962    1.1491    0.0000 C   0  0  0  0  0  0  0  0  0  0  0  0
   -0.4330   -0.7500    0.0000 C   0  0  0  0  0  0  0  0  0  0  0  0
    2.5059    2.6694    0.0000 C   0  0  0  0  0  0  0  0  0  0  0  0
    3.6206    3.6731    0.0000 C   0  0  0  0  0  0  0  0  0  0  0  0
    4.9197    2.9231    0.0000 C   0  0  0  0  0  0  0  0  0  0  0  0
    5.5298    4.2934    0.0000 C   0  0  0  0  0  0  0  0  0  0  0  0
    6.9001    3.6833    0.0000 Mg  0  0  0  0  0  2  0  0  0  0  0  0
    8.2704    3.0732    0.0000 C   0  0  0  0  0  0  0  0  0  0  0  0
    8.8805    4.4435    0.0000 C   0  0  0  0  0  0  0  0  0  0  0  0
    9.4906    5.8138    0.0000 C   0  0  0  0  0  0  0  0  0  0  0  0
   10.8609    5.2037    0.0000 C   0  0  0  0  0  0  0  0  0  0  0  0
   11.4711    6.5740    0.0000 C   0  0  0  0  0  0  0  0  0  0  0  0
   12.0812    7.9443    0.0000 C   0  0  0  0  0  0  0  0  0  0  0  0
   12.6913    9.3146    0.0000 C   0  0  0  0  0  0  0  0  0  0  0  0
   10.7108    8.5544    0.0000 C   0  0  0  0  0  0  0  0  0  0  0  0
    9.3405    9.1645    0.0000 C   0  0  0  0  0  0  0  0  0  0  0  0
    7.9702    9.7746    0.0000 C   0  0  0  0  0  0  0  0  0  0  0  0
    9.9506   10.5349    0.0000 N   0  0  0  0  0  0  0  0  0  0  0  0
    9.0689   11.7484    0.0000 C   0  0  0  0  0  0  0  0  0  0  0  0
   11.4424   10.6916    0.0000 N   0  0  0  0  0  0  0  0  0  0  0  0
   10.1007    7.1841    0.0000 C   0  0  0  0  0  0  0  0  0  0  0  0
    7.6603    1.7028    0.0000 O   0  0  0  0  0  0  0  0  0  0  0  0
    8.5420    0.4893    0.0000 C   0  0  0  0  0  0  0  0  0  0  0  0
    9.5840    1.5683    0.0000 C   0  0  0  0  0  0  0  0  0  0  0  0
   11.0394    1.2054    0.0000 C   0  0  0  0  0  0  0  0  0  0  0  0
   11.4529   -0.2364    0.0000 C   0  0  0  0  0  0  0  0  0  0  0  0
   10.4109   -1.3155    0.0000 C   0  0  0  0  0  0  0  0  0  0  0  0
    9.3689   -2.3945    0.0000 O   0  0  0  0  0  0  0  0  0  0  0  0
    8.9554   -0.9526    0.0000 C   0  0  0  0  0  0  0  0  0  0  0  0
    6.1399    5.6637    0.0000 C   0  0  0  0  0  0  0  0  0  0  0  0
    6.7500    7.0340    0.0000 C   0  0  0  0  0  0  0  0  0  0  0  0
    7.5102    5.0536    0.0000 O   0  0  0  0  0  0  0  0  0  0  0  0
    4.6078    1.4558    0.0000 C   0  0  0  0  0  0  0  0  0  0  0  0
   -2.1228    2.7809    0.0000 H   0  0  0  0  0  0  0  0  0  0  0  0
   -0.6340    4.0981    0.0000 H   0  0  0  0  0  0  0  0  0  0  0  0
   -0.8721    1.6432    0.0000 H   0  0  0  0  0  0  0  0  0  0  0  0
    1.4521    3.9788    0.0000 H   0  0  0  0  0  0  0  0  0  0  0  0
    5.2143    0.6575    0.0000 H   0  0  0  0  0  0  0  0  0  0  0  0
    5.0151   -0.9642    0.0000 H   0  0  0  0  0  0  0  0  0  0  0  0
    4.5256   -1.8121    0.0000 H   0  0  0  0  0  0  0  0  0  0  0  0
    2.8556   -2.7762    0.0000 H   0  0  0  0  0  0  0  0  0  0  0  0
    1.8765   -2.7762    0.0000 H   0  0  0  0  0  0  0  0  0  0  0  0
    0.2795   -1.9801    0.0000 H   0  0  0  0  0  0  0  0  0  0  0  0
   -0.6259    1.5235    0.0000 H   0  0  0  0  0  0  0  0  0  0  0  0
   -2.6962   -1.1491    0.0000 H   0  0  0  0  0  0  0  0  0  0  0  0
   -3.6604    2.2981    0.0000 H   0  0  0  0  0  0  0  0  0  0  0  0
   -3.8453    0.1849    0.0000 H   0  0  0  0  0  0  0  0  0  0  0  0
   -1.6733    2.2461    0.0000 H   0  0  0  0  0  0  0  0  0  0  0  0
   -0.6159   -2.2388    0.0000 H   0  0  0  0  0  0  0  0  0  0  0  0
    1.0068    2.6172    0.0000 H   0  0  0  0  0  0  0  0  0  0  0  0
    1.7787    3.9813    0.0000 H   0  0  0  0  0  0  0  0  0  0  0  0
    2.5059    4.6767    0.0000 H   0  0  0  0  0  0  0  0  0  0  0  0
    4.3478    4.9850    0.0000 H   0  0  0  0  0  0  0  0  0  0  0  0
    6.3463    2.4595    0.0000 H   0  0  0  0  0  0  0  0  0  0  0  0
    4.2441    5.0660    0.0000 H   0  0  0  0  0  0  0  0  0  0  0  0
    9.7049    2.6346    0.0000 H   0  0  0  0  0  0  0  0  0  0  0  0
   10.2508    3.8334    0.0000 H   0  0  0  0  0  0  0  0  0  0  0  0
    7.4033    4.7039    0.0000 H   0  0  0  0  0  0  0  0  0  0  0  0
    8.1203    6.4239    0.0000 H   0  0  0  0  0  0  0  0  0  0  0  0
   12.2313    4.5936    0.0000 H   0  0  0  0  0  0  0  0  0  0  0  0
   10.6006    3.7265    0.0000 H   0  0  0  0  0  0  0  0  0  0  0  0
   12.8414    5.9639    0.0000 H   0  0  0  0  0  0  0  0  0  0  0  0
   13.4515    7.3342    0.0000 H   0  0  0  0  0  0  0  0  0  0  0  0
   13.3014   10.6850    0.0000 H   0  0  0  0  0  0  0  0  0  0  0  0
   14.0616    8.7045    0.0000 H   0  0  0  0  0  0  0  0  0  0  0  0
   11.2568    9.7532    0.0000 H   0  0  0  0  0  0  0  0  0  0  0  0
   11.4834    9.8402    0.0000 H   0  0  0  0  0  0  0  0  0  0  0  0
    8.5679    7.8788    0.0000 H   0  0  0  0  0  0  0  0  0  0  0  0
    6.5999   10.3847    0.0000 H   0  0  0  0  0  0  0  0  0  0  0  0
    8.0486   11.2726    0.0000 H   0  0  0  0  0  0  0  0  0  0  0  0
    7.5317    8.3402    0.0000 H   0  0  0  0  0  0  0  0  0  0  0  0
    8.1873   12.9619    0.0000 H   0  0  0  0  0  0  0  0  0  0  0  0
   10.2825   12.6301    0.0000 H   0  0  0  0  0  0  0  0  0  0  0  0
    7.7570   11.0212    0.0000 H   0  0  0  0  0  0  0  0  0  0  0  0
   12.0525   12.0620    0.0000 H   0  0  0  0  0  0  0  0  0  0  0  0
   12.5915    9.7275    0.0000 H   0  0  0  0  0  0  0  0  0  0  0  0
    8.6663    7.6226    0.0000 H   0  0  0  0  0  0  0  0  0  0  0  0
    7.1938   -0.1682    0.0000 H   0  0  0  0  0  0  0  0  0  0  0  0
   10.6447    2.6289    0.0000 H   0  0  0  0  0  0  0  0  0  0  0  0
    8.5803    2.6831    0.0000 H   0  0  0  0  0  0  0  0  0  0  0  0
   12.5312    1.3622    0.0000 H   0  0  0  0  0  0  0  0  0  0  0  0
   11.1441    2.7018    0.0000 H   0  0  0  0  0  0  0  0  0  0  0  0
   12.3346   -1.4500    0.0000 H   0  0  0  0  0  0  0  0  0  0  0  0
   12.8011    0.4211    0.0000 H   0  0  0  0  0  0  0  0  0  0  0  0
   11.4899   -2.3574    0.0000 H   0  0  0  0  0  0  0  0  0  0  0  0
    7.5136   -1.3660    0.0000 H   0  0  0  0  0  0  0  0  0  0  0  0
    4.7696    6.2738    0.0000 H   0  0  0  0  0  0  0  0  0  0  0  0
    7.5226    8.3197    0.0000 H   0  0  0  0  0  0  0  0  0  0  0  0
    5.3797    7.6441    0.0000 H   0  0  0  0  0  0  0  0  0  0  0  0
    8.1203    6.4239    0.0000 H   0  0  0  0  0  0  0  0  0  0  0  0
    8.4743    6.2027    0.0000 H   0  0  0  0  0  0  0  0  0  0  0  0
    6.0996    1.2990    0.0000 H   0  0  0  0  0  0  0  0  0  0  0  0
    4.9708    0.0004    0.0000 H   0  0  0  0  0  0  0  0  0  0  0  0
  1  2  1  0
  2  3  2  3
  3  4  1  0
  4  5  1  6
  5  6  1  0
  6  7  1  0
  8  7  1  1
  8  9  1  0
  9 10  1  0
 10 11  1  0
 10 12  1  0
  4 13  1  0
 13 14  1  0
 14 15  1  0
 15 16  1  0
 16 17  1  0
 17 18  1  0
 18 19  1  0
 19 20  1  0
 20 21  1  0
 21 22  1  0
 22 23  1  0
 23 24  1  0
 23 25  1  0
 25 26  1  0
 26 27  1  0
 26 28  1  0
 28 29  1  0
 28 30  1  0
 25 31  1  0
 18 32  1  0
 32 33  1  0
 33 34  1  0
 34 35  1  0
 35 36  1  0
 36 37  1  0
 37 38  1  0
 38 39  1  0
 16 40  1  0
 40 41  1  0
 40 42  1  0
 15 43  1  0
  8  3  1  0
 12  9  1  0
 31 20  1  0
 39 33  1  0
 43  4  1  0
 12  8  1  0
 31 22  1  0
 39 37  1  0
  1 44  1  0
  1 45  1  0
  1 46  1  0
  2 47  1  0
  5 48  1  0
  5 49  1  0
  6 50  1  0
  6 51  1  0
  7 52  1  0
  7 53  1  0
  9 54  1  1
 10 55  1  1
 11 56  1  0
 11 57  1  0
 11 58  1  0
 12 59  1  1
 13 60  1  0
 13 61  1  0
 14 62  1  0
 14 63  1  0
 15 64  1  6
 16 65  1  1
 18 66  1  1
 19 67  1  0
 19 68  1  0
 20 69  1  6
 21 70  1  0
 21 71  1  0
 22 72  1  1
 23 73  1  6
 24 74  1  0
 24 75  1  0
 24 76  1  0
 25 77  1  6
 26 78  1  1
 27 79  1  0
 27 80  1  0
 27 81  1  0
 29 82  1  0
 29 83  1  0
 29 84  1  0
 30 85  1  0
 30 86  1  0
 31 87  1  1
 33 88  1  6
 34 89  1  0
 34 90  1  0
 35 91  1  0
 35 92  1  0
 36 93  1  0
 36 94  1  0
 37 95  1  6
 39 96  1  6
 40 97  1  1
 41 98  1  0
 41 99  1  0
 41100  1  0
 42101  1  0
 43102  1  0
 43103  1  0
M  END
$$$$
