
     RDKit          3D

 12 13  0  0  0  0  0  0  0  0999 V2000
   15.8668  -28.3701   -1.2029 O   0  0  0  0  0  0  0  0  0  0  0  0
   15.3936  -29.4969   -1.8878 C   0  0  0  0  0  0  0  0  0  0  0  0
   13.8942  -29.4727   -2.2280 C   0  0  0  0  0  0  0  0  0  0  0  0
   13.1125  -28.2561   -1.6783 C   0  0  0  0  0  0  0  0  0  0  0  0
   11.7448  -30.6726   -2.3925 N   0  0  0  0  0  0  0  0  0  0  0  0
   14.9469  -29.2375   -3.3337 C   0  0  0  0  0  0  0  0  0  0  0  0
   13.7572  -31.9956   -3.0015 C   0  0  0  0  0  0  0  0  0  0  0  0
   13.1302  -33.3573   -2.6997 C   0  0  0  0  0  0  0  0  0  0  0  0
   13.1742  -30.8571   -2.1165 C   0  0  0  0  0  0  0  0  0  0  0  0
   15.0978  -27.7967   -3.8580 C   0  0  0  0  0  0  0  0  0  0  0  0
   15.4526  -27.6956   -5.3345 C   0  0  0  0  0  0  0  0  0  0  0  0
   14.0378  -27.3978   -4.8732 C   0  0  0  0  0  0  0  0  0  0  0  0
  2  1  1  0
  3  2  1  0
  4  3  1  0
  6  2  1  0
  6  3  1  0
  8  7  1  0
  9  3  1  0
  9  5  1  0
  9  7  1  0
 10  6  1  0
 11 10  1  0
 12 10  1  0
 12 11  1  0
M  END
$$$$
