
     RDKit          2D

 67 69  0  0  0  0  0  0  0  0999 V2000
    0.8660    4.5963    0.0000 C   0  0  0  0  0  0  0  0  0  0  0  0
    1.8302    3.4472    0.0000 C   0  0  0  0  0  0  0  0  0  0  0  0
    2.7944    2.2981    0.0000 C   0  0  0  0  0  0  0  0  0  0  0  0
    1.8302    1.1491    0.0000 C   0  0  0  0  0  0  0  0  0  0  0  0
    0.8660    0.0000    0.0000 C   0  0  0  0  0  0  0  0  0  0  0  0
    1.8302   -1.1491    0.0000 O   0  0  0  0  0  0  0  0  0  0  0  0
   -0.4330    0.7500    0.0000 C   0  0  0  0  0  0  0  0  0  0  0  0
   -1.8596    1.2135    0.0000 C   0  0  0  0  0  0  0  0  0  0  0  0
   -2.7413    0.0000    0.0000 C   0  0  0  0  0  0  0  0  0  0  0  0
   -1.8596   -1.2135    0.0000 C   0  0  0  0  0  0  0  0  0  0  0  0
   -3.1586   -1.9635    0.0000 C   0  0  0  0  0  0  0  0  0  0  0  0
   -4.4577   -2.7135    0.0000 C   0  0  0  0  0  0  0  0  0  0  0  0
   -2.4086   -3.2626    0.0000 C   0  0  0  0  0  0  0  0  0  0  0  0
   -0.4330   -0.7500    0.0000 C   0  0  0  0  0  0  0  0  0  0  0  0
    0.1771   -2.1203    0.0000 C   0  0  0  0  0  0  0  0  0  0  0  0
    0.7872   -3.4906    0.0000 C   0  0  0  0  0  0  0  0  0  0  0  0
    4.0934    3.0481    0.0000 C   0  0  0  0  0  0  0  0  0  0  0  0
    4.0934    1.5481    0.0000 C   0  0  0  0  0  0  0  0  0  0  0  0
    5.5706    1.2877    0.0000 C   0  0  0  0  0  0  0  0  0  0  0  0
    5.3102   -0.1896    0.0000 I   0  0  0  0  0  0  0  0  0  0  0  0
    7.0478    1.0272    0.0000 C   0  0  0  0  0  0  0  0  0  0  0  0
    6.7874   -0.4500    0.0000 O   0  0  0  0  0  0  0  0  0  0  0  0
    8.5251    0.7667    0.0000 C   0  0  0  0  0  0  0  0  0  0  0  0
   10.0023    0.5062    0.0000 O   0  0  0  0  0  0  0  0  0  0  0  0
   10.5153   -0.9033    0.0000 C   0  0  0  0  0  0  0  0  0  0  0  0
    9.1058   -1.4163    0.0000 C   0  0  0  0  0  0  0  0  0  0  0  0
   11.9248   -0.3903    0.0000 N   0  0  0  0  0  0  0  0  0  0  0  0
   -0.0982    5.7453    0.0000 H   0  0  0  0  0  0  0  0  0  0  0  0
   -0.2830    3.6321    0.0000 H   0  0  0  0  0  0  0  0  0  0  0  0
    2.0151    5.5604    0.0000 H   0  0  0  0  0  0  0  0  0  0  0  0
    2.8532    4.5443    0.0000 H   0  0  0  0  0  0  0  0  0  0  0  0
    0.7381    2.9146    0.0000 H   0  0  0  0  0  0  0  0  0  0  0  0
    0.8995    1.9301    0.0000 H   0  0  0  0  0  0  0  0  0  0  0  0
    2.8532    0.0520    0.0000 H   0  0  0  0  0  0  0  0  0  0  0  0
    1.4928   -2.6106    0.0000 H   0  0  0  0  0  0  0  0  0  0  0  0
   -0.1726    2.2272    0.0000 H   0  0  0  0  0  0  0  0  0  0  0  0
   -1.2495    2.5838    0.0000 H   0  0  0  0  0  0  0  0  0  0  0  0
   -3.1586    1.9635    0.0000 H   0  0  0  0  0  0  0  0  0  0  0  0
   -3.8560    1.0037    0.0000 H   0  0  0  0  0  0  0  0  0  0  0  0
   -3.3943   -0.4572    0.0000 H   0  0  0  0  0  0  0  0  0  0  0  0
   -1.4211   -2.6480    0.0000 H   0  0  0  0  0  0  0  0  0  0  0  0
   -3.6384   -1.3269    0.0000 H   0  0  0  0  0  0  0  0  0  0  0  0
   -5.7567   -3.4635    0.0000 H   0  0  0  0  0  0  0  0  0  0  0  0
   -5.0437   -1.3328    0.0000 H   0  0  0  0  0  0  0  0  0  0  0  0
   -5.3604   -1.5156    0.0000 H   0  0  0  0  0  0  0  0  0  0  0  0
   -1.6586   -4.5616    0.0000 H   0  0  0  0  0  0  0  0  0  0  0  0
   -3.7894   -3.8486    0.0000 H   0  0  0  0  0  0  0  0  0  0  0  0
   -3.6066   -4.1653    0.0000 H   0  0  0  0  0  0  0  0  0  0  0  0
    1.6543   -1.8599    0.0000 H   0  0  0  0  0  0  0  0  0  0  0  0
   -1.1086   -2.8929    0.0000 H   0  0  0  0  0  0  0  0  0  0  0  0
    1.3973   -4.8610    0.0000 H   0  0  0  0  0  0  0  0  0  0  0  0
   -0.5831   -4.1007    0.0000 H   0  0  0  0  0  0  0  0  0  0  0  0
    2.2217   -3.0521    0.0000 H   0  0  0  0  0  0  0  0  0  0  0  0
    3.7560    4.5097    0.0000 H   0  0  0  0  0  0  0  0  0  0  0  0
    5.5279    3.4867    0.0000 H   0  0  0  0  0  0  0  0  0  0  0  0
    3.7560    0.0866    0.0000 H   0  0  0  0  0  0  0  0  0  0  0  0
    6.0092    2.7221    0.0000 H   0  0  0  0  0  0  0  0  0  0  0  0
    7.3083    2.5044    0.0000 H   0  0  0  0  0  0  0  0  0  0  0  0
    7.6690   -1.6636    0.0000 H   0  0  0  0  0  0  0  0  0  0  0  0
    8.7855    2.2439    0.0000 H   0  0  0  0  0  0  0  0  0  0  0  0
    8.2646   -0.7105    0.0000 H   0  0  0  0  0  0  0  0  0  0  0  0
   11.0283   -2.3128    0.0000 H   0  0  0  0  0  0  0  0  0  0  0  0
    7.7693   -2.0973    0.0000 H   0  0  0  0  0  0  0  0  0  0  0  0
    9.6188   -2.8259    0.0000 H   0  0  0  0  0  0  0  0  0  0  0  0
    8.1216   -0.2843    0.0000 H   0  0  0  0  0  0  0  0  0  0  0  0
   13.0739   -1.3544    0.0000 H   0  0  0  0  0  0  0  0  0  0  0  0
   12.1853    1.0869    0.0000 H   0  0  0  0  0  0  0  0  0  0  0  0
  1  2  1  0
  2  3  1  0
  3  4  1  0
  4  5  1  0
  5  6  1  0
  5  7  1  0
  7  8  1  0
  8  9  1  0
  9 10  1  0
 10 11  1  0
 11 12  1  0
 11 13  1  0
 10 14  1  0
 14 15  1  0
 15 16  1  0
  3 17  1  0
 17 18  1  0
 18 19  1  0
 19 20  1  0
 19 21  1  0
 21 22  1  0
 21 23  1  0
 23 24  1  0
 24 25  1  0
 25 26  1  0
 25 27  1  0
 18  3  1  0
 14  5  1  0
 14  7  1  0
  1 28  1  0
  1 29  1  0
  1 30  1  0
  2 31  1  0
  2 32  1  0
  4 33  1  0
  4 34  1  0
  6 35  1  0
  7 36  1  0
  8 37  1  0
  8 38  1  0
  9 39  1  0
  9 40  1  0
 10 41  1  0
 11 42  1  0
 12 43  1  0
 12 44  1  0
 12 45  1  0
 13 46  1  0
 13 47  1  0
 13 48  1  0
 15 49  1  0
 15 50  1  0
 16 51  1  0
 16 52  1  0
 16 53  1  0
 17 54  1  0
 17 55  1  0
 18 56  1  0
 19 57  1  0
 21 58  1  0
 22 59  1  0
 23 60  1  0
 23 61  1  0
 25 62  1  0
 26 63  1  0
 26 64  1  0
 26 65  1  0
 27 66  1  0
 27 67  1  0
M  END
$$$$
