
     RDKit          2D

 48 52  0  0  0  0  0  0  0  0999 V2000
    1.5081   -7.9944    0.0000 C   0  0  0  0  0  0  0  0  0  0  0  0
    1.1199   -6.5456    0.0000 C   0  0  0  0  0  0  0  0  0  0  0  0
    0.7317   -5.0967    0.0000 C   0  0  0  0  0  0  0  0  0  0  0  0
    0.3434   -3.6478    0.0000 C   0  0  0  0  0  0  0  0  0  0  0  0
   -0.0448   -2.1989    0.0000 C   0  0  0  0  0  0  0  0  0  0  0  0
   -0.4330   -0.7500    0.0000 C   0  0  0  0  0  0  0  0  0  0  0  0
   -1.9330   -0.7500    0.0000 C   0  0  0  0  0  0  0  0  0  0  0  0
   -1.9330    0.7500    0.0000 C   0  0  0  0  0  0  0  0  0  0  0  0
   -0.4330    0.7500    0.0000 C   0  0  0  0  0  0  0  0  0  0  0  0
    0.8660    0.0000    0.0000 C   0  0  0  0  0  0  0  0  0  0  0  0
    2.1806   -4.7084    0.0000 C   0  0  0  0  0  0  0  0  0  0  0  0
    3.6295   -4.3202    0.0000 C   0  0  0  0  0  0  0  0  0  0  0  0
    4.0177   -5.7691    0.0000 O   0  0  0  0  0  0  0  0  0  0  0  0
    5.4666   -5.3809    0.0000 C   0  0  0  0  0  0  0  0  0  0  0  0
    5.0783   -3.9320    0.0000 O   0  0  0  0  0  0  0  0  0  0  0  0
   -0.3290   -6.9338    0.0000 C   0  0  0  0  0  0  0  0  0  0  0  0
    0.0592   -8.3827    0.0000 C   0  0  0  0  0  0  0  0  0  0  0  0
   -1.3896   -8.7709    0.0000 C   0  0  0  0  0  0  0  0  0  0  0  0
   -2.8385   -8.3827    0.0000 C   0  0  0  0  0  0  0  0  0  0  0  0
   -1.7779   -7.3220    0.0000 C   0  0  0  0  0  0  0  0  0  0  0  0
    1.8964   -9.4433    0.0000 H   0  0  0  0  0  0  0  0  0  0  0  0
    0.8109   -8.3810    0.0000 H   0  0  0  0  0  0  0  0  0  0  0  0
    2.9570   -7.6062    0.0000 H   0  0  0  0  0  0  0  0  0  0  0  0
    2.6053   -6.3368    0.0000 H   0  0  0  0  0  0  0  0  0  0  0  0
   -0.7537   -5.3054    0.0000 H   0  0  0  0  0  0  0  0  0  0  0  0
   -1.1054   -4.0360    0.0000 H   0  0  0  0  0  0  0  0  0  0  0  0
    1.7342   -3.0858    0.0000 H   0  0  0  0  0  0  0  0  0  0  0  0
    1.4406   -1.9902    0.0000 H   0  0  0  0  0  0  0  0  0  0  0  0
   -1.4355   -2.7608    0.0000 H   0  0  0  0  0  0  0  0  0  0  0  0
   -3.4330   -0.7500    0.0000 H   0  0  0  0  0  0  0  0  0  0  0  0
   -2.1159   -2.2388    0.0000 H   0  0  0  0  0  0  0  0  0  0  0  0
   -1.9330    2.2500    0.0000 H   0  0  0  0  0  0  0  0  0  0  0  0
   -3.4330    0.7500    0.0000 H   0  0  0  0  0  0  0  0  0  0  0  0
   -0.0448    2.1989    0.0000 H   0  0  0  0  0  0  0  0  0  0  0  0
    1.8302    1.1491    0.0000 H   0  0  0  0  0  0  0  0  0  0  0  0
    1.9631   -1.0230    0.0000 H   0  0  0  0  0  0  0  0  0  0  0  0
    2.7425   -6.0992    0.0000 H   0  0  0  0  0  0  0  0  0  0  0  0
    1.9718   -3.2230    0.0000 H   0  0  0  0  0  0  0  0  0  0  0  0
    3.2412   -2.8713    0.0000 H   0  0  0  0  0  0  0  0  0  0  0  0
    6.9155   -4.9926    0.0000 H   0  0  0  0  0  0  0  0  0  0  0  0
    5.8548   -6.8298    0.0000 H   0  0  0  0  0  0  0  0  0  0  0  0
   -0.8909   -5.5430    0.0000 H   0  0  0  0  0  0  0  0  0  0  0  0
    0.4475   -9.8316    0.0000 H   0  0  0  0  0  0  0  0  0  0  0  0
    1.5590   -8.3566    0.0000 H   0  0  0  0  0  0  0  0  0  0  0  0
   -1.3896  -10.2709    0.0000 H   0  0  0  0  0  0  0  0  0  0  0  0
   -3.4725   -9.7421    0.0000 H   0  0  0  0  0  0  0  0  0  0  0  0
   -4.0673   -7.5223    0.0000 H   0  0  0  0  0  0  0  0  0  0  0  0
   -2.5279   -6.0230    0.0000 H   0  0  0  0  0  0  0  0  0  0  0  0
  1  2  1  0
  2  3  1  0
  3  4  1  0
  4  5  1  0
  5  6  1  0
  6  7  1  0
  7  8  1  0
  8  9  1  0
  9 10  1  0
  3 11  1  0
 11 12  1  0
 12 13  1  0
 13 14  1  0
 14 15  1  0
  2 16  1  0
 16 17  1  0
 17 18  1  0
 18 19  1  0
 19 20  1  0
  9  6  1  0
 15 12  1  0
 20 16  1  0
 10  6  1  0
 20 18  1  0
  1 21  1  0
  1 22  1  0
  1 23  1  0
  2 24  1  0
  3 25  1  0
  4 26  1  0
  4 27  1  0
  5 28  1  0
  5 29  1  0
  7 30  1  0
  7 31  1  0
  8 32  1  0
  8 33  1  0
  9 34  1  0
 10 35  1  0
 10 36  1  0
 11 37  1  0
 11 38  1  0
 12 39  1  0
 14 40  1  0
 14 41  1  0
 16 42  1  0
 17 43  1  0
 17 44  1  0
 18 45  1  0
 19 46  1  0
 19 47  1  0
 20 48  1  0
M  END
$$$$
