
     RDKit          2D

 33 34  0  0  0  0  0  0  0  0999 V2000
    2.6077    0.1080    0.0000 O   0  0  0  0  0  0  0  0  0  0  0  0
    1.7286    0.0000    0.0000 C   0  0  0  0  0  0  0  0  0  0  0  0
    1.0777    1.3515    0.0000 O   0  0  0  0  0  0  0  0  0  0  0  0
   -0.3846    1.6852    0.0000 C   0  0  0  0  0  0  0  0  0  0  0  0
   -1.5574    0.7500    0.0000 C   0  0  0  0  0  0  0  0  0  0  0  0
   -1.5574   -0.7500    0.0000 C   0  0  0  0  0  0  0  0  0  0  0  0
   -2.2082   -2.1015    0.0000 O   0  0  0  0  0  0  0  0  0  0  0  0
   -0.3846   -1.6852    0.0000 C   0  0  0  0  0  0  0  0  0  0  0  0
    1.0777   -1.3515    0.0000 C   0  0  0  0  0  0  0  0  0  0  0  0
    2.5401   -1.6852    0.0000 C   0  0  0  0  0  0  0  0  0  0  0  0
    4.0025   -2.0190    0.0000 C   0  0  0  0  0  0  0  0  0  0  0  0
    3.6688   -3.4814    0.0000 O   0  0  0  0  0  0  0  0  0  0  0  0
    5.4649   -2.3528    0.0000 C   0  0  0  0  0  0  0  0  0  0  0  0
    6.9533   -2.1663    0.0000 C   0  0  0  0  0  0  0  0  0  0  0  0
    6.0476   -0.9706    0.0000 C   0  0  0  0  0  0  0  0  0  0  0  0
   -1.4346    2.7564    0.0000 H   0  0  0  0  0  0  0  0  0  0  0  0
    0.2662    3.0367    0.0000 H   0  0  0  0  0  0  0  0  0  0  0  0
   -3.0496    0.5970    0.0000 H   0  0  0  0  0  0  0  0  0  0  0  0
   -2.3681    2.0120    0.0000 H   0  0  0  0  0  0  0  0  0  0  0  0
   -3.0496   -0.5970    0.0000 H   0  0  0  0  0  0  0  0  0  0  0  0
   -3.7040   -2.2135    0.0000 H   0  0  0  0  0  0  0  0  0  0  0  0
    0.0966   -3.1059    0.0000 H   0  0  0  0  0  0  0  0  0  0  0  0
   -1.2962   -2.8765    0.0000 H   0  0  0  0  0  0  0  0  0  0  0  0
    1.2606   -2.8403    0.0000 H   0  0  0  0  0  0  0  0  0  0  0  0
    2.2064   -3.1476    0.0000 H   0  0  0  0  0  0  0  0  0  0  0  0
    2.8410   -0.8522    0.0000 H   0  0  0  0  0  0  0  0  0  0  0  0
    4.1403   -0.6761    0.0000 H   0  0  0  0  0  0  0  0  0  0  0  0
    4.6358   -4.6281    0.0000 H   0  0  0  0  0  0  0  0  0  0  0  0
    5.5733   -3.8489    0.0000 H   0  0  0  0  0  0  0  0  0  0  0  0
    7.3954   -3.5996    0.0000 H   0  0  0  0  0  0  0  0  0  0  0  0
    8.2881   -1.4820    0.0000 H   0  0  0  0  0  0  0  0  0  0  0  0
    7.0678    0.1290    0.0000 H   0  0  0  0  0  0  0  0  0  0  0  0
    5.0113   -0.1054    0.0000 H   0  0  0  0  0  0  0  0  0  0  0  0
  1  2  2  0
  2  3  1  0
  3  4  1  0
  4  5  1  0
  5  6  1  0
  6  7  1  0
  6  8  1  0
  8  9  1  0
  9 10  1  0
 10 11  1  0
 11 12  1  0
 11 13  1  0
 13 14  1  0
 14 15  1  0
  9  2  1  0
 15 13  1  0
  4 16  1  0
  4 17  1  0
  5 18  1  0
  5 19  1  0
  6 20  1  0
  7 21  1  0
  8 22  1  0
  8 23  1  0
  9 24  1  0
 10 25  1  0
 10 26  1  0
 11 27  1  0
 12 28  1  0
 13 29  1  0
 14 30  1  0
 14 31  1  0
 15 32  1  0
 15 33  1  0
M  END
$$$$
