
     RDKit          2D

 80 85  0  0  0  0  0  0  0  0999 V2000
   -4.9330    8.5442    0.0000 C   0  0  0  0  0  0  0  0  0  0  0  0
   -4.1830    7.2452    0.0000 C   0  0  0  0  0  0  0  0  0  0  0  0
   -3.4330    5.9462    0.0000 C   0  0  0  0  0  0  0  0  0  0  0  0
   -2.1340    6.6962    0.0000 O   0  0  0  0  0  0  0  0  0  0  0  0
   -2.6830    4.6471    0.0000 C   0  0  0  0  0  0  0  0  0  0  0  0
   -1.9330    3.3481    0.0000 C   0  0  0  0  0  0  0  0  0  0  0  0
   -0.6340    4.0981    0.0000 C   0  0  0  0  0  0  0  0  0  0  0  0
    0.6651    4.8481    0.0000 C   0  0  0  0  0  0  0  0  0  0  0  0
    1.9641    5.5981    0.0000 C   0  0  0  0  0  0  0  0  0  0  0  0
    3.2631    6.3481    0.0000 C   0  0  0  0  0  0  0  0  0  0  0  0
    4.5622    7.0981    0.0000 N   0  0  0  0  0  0  0  0  0  0  0  0
    4.5622    8.5981    0.0000 N   0  0  0  0  0  0  0  0  0  0  0  0
   -3.2321    2.5981    0.0000 C   0  0  0  0  0  0  0  0  0  0  0  0
   -2.4821    1.2990    0.0000 C   0  0  0  0  0  0  0  0  0  0  0  0
   -1.1830    2.0490    0.0000 C   0  0  0  0  0  0  0  0  0  0  0  0
   -0.4330    0.7500    0.0000 C   0  0  0  0  0  0  0  0  0  0  0  0
    0.8660    0.0000    0.0000 C   0  0  0  0  0  0  0  0  0  0  0  0
   -0.4330   -0.7500    0.0000 C   0  0  0  0  0  0  0  0  0  0  0  0
   -0.4330   -2.2500    0.0000 C   0  0  0  0  0  0  0  0  0  0  0  0
   -0.4330   -3.7500    0.0000 C   0  0  0  0  0  0  0  0  0  0  0  0
   -1.9330   -2.2500    0.0000 O   0  0  0  0  0  0  0  0  0  0  0  0
   -2.6830   -3.5490    0.0000 C   0  0  0  0  0  0  0  0  0  0  0  0
   -1.7321    0.0000    0.0000 C   0  0  0  0  0  0  0  0  0  0  0  0
   -4.7321    5.1962    0.0000 C   0  0  0  0  0  0  0  0  0  0  0  0
   -5.6137    6.4097    0.0000 C   0  0  0  0  0  0  0  0  0  0  0  0
   -7.0403    5.9462    0.0000 C   0  0  0  0  0  0  0  0  0  0  0  0
   -7.3522    7.4134    0.0000 C   0  0  0  0  0  0  0  0  0  0  0  0
   -7.6640    8.8806    0.0000 C   0  0  0  0  0  0  0  0  0  0  0  0
   -8.8194    7.1015    0.0000 N   0  0  0  0  0  0  0  0  0  0  0  0
   -7.0403    4.4462    0.0000 C   0  0  0  0  0  0  0  0  0  0  0  0
   -5.6137    3.9826    0.0000 C   0  0  0  0  0  0  0  0  0  0  0  0
   -5.9256    2.5154    0.0000 C   0  0  0  0  0  0  0  0  0  0  0  0
   -4.1219    3.8258    0.0000 C   0  0  0  0  0  0  0  0  0  0  0  0
   -5.5191    9.9250    0.0000 H   0  0  0  0  0  0  0  0  0  0  0  0
   -3.6340    9.2942    0.0000 H   0  0  0  0  0  0  0  0  0  0  0  0
   -6.3138    7.9582    0.0000 H   0  0  0  0  0  0  0  0  0  0  0  0
   -2.9851    8.1479    0.0000 H   0  0  0  0  0  0  0  0  0  0  0  0
   -5.0344    7.0011    0.0000 H   0  0  0  0  0  0  0  0  0  0  0  0
   -1.9511    8.1850    0.0000 H   0  0  0  0  0  0  0  0  0  0  0  0
   -3.3196    4.1674    0.0000 H   0  0  0  0  0  0  0  0  0  0  0  0
   -1.4851    5.5499    0.0000 H   0  0  0  0  0  0  0  0  0  0  0  0
   -1.2200    5.4788    0.0000 H   0  0  0  0  0  0  0  0  0  0  0  0
    0.2688    2.9001    0.0000 H   0  0  0  0  0  0  0  0  0  0  0  0
    1.4151    3.5490    0.0000 H   0  0  0  0  0  0  0  0  0  0  0  0
   -0.0849    6.1471    0.0000 H   0  0  0  0  0  0  0  0  0  0  0  0
    1.2141    6.8971    0.0000 H   0  0  0  0  0  0  0  0  0  0  0  0
    2.7141    4.2990    0.0000 H   0  0  0  0  0  0  0  0  0  0  0  0
    4.0131    5.0490    0.0000 H   0  0  0  0  0  0  0  0  0  0  0  0
    2.5131    7.6471    0.0000 H   0  0  0  0  0  0  0  0  0  0  0  0
    5.8612    9.3481    0.0000 H   0  0  0  0  0  0  0  0  0  0  0  0
   -4.3110    1.5560    0.0000 H   0  0  0  0  0  0  0  0  0  0  0  0
   -3.8181    3.9788    0.0000 H   0  0  0  0  0  0  0  0  0  0  0  0
   -3.7811    0.5490    0.0000 H   0  0  0  0  0  0  0  0  0  0  0  0
    0.1978    2.6351    0.0000 H   0  0  0  0  0  0  0  0  0  0  0  0
    1.8302    1.1491    0.0000 H   0  0  0  0  0  0  0  0  0  0  0  0
    1.8302   -1.1491    0.0000 H   0  0  0  0  0  0  0  0  0  0  0  0
    1.0670   -2.2500    0.0000 H   0  0  0  0  0  0  0  0  0  0  0  0
   -0.4330   -5.2500    0.0000 H   0  0  0  0  0  0  0  0  0  0  0  0
    1.0670   -3.7500    0.0000 H   0  0  0  0  0  0  0  0  0  0  0  0
   -1.8333   -4.2877    0.0000 H   0  0  0  0  0  0  0  0  0  0  0  0
   -3.4330   -4.8481    0.0000 H   0  0  0  0  0  0  0  0  0  0  0  0
   -3.9821   -2.7990    0.0000 H   0  0  0  0  0  0  0  0  0  0  0  0
   -1.4851   -4.4518    0.0000 H   0  0  0  0  0  0  0  0  0  0  0  0
   -2.7927   -1.0607    0.0000 H   0  0  0  0  0  0  0  0  0  0  0  0
   -4.5348    7.4517    0.0000 H   0  0  0  0  0  0  0  0  0  0  0  0
   -6.3863    7.6954    0.0000 H   0  0  0  0  0  0  0  0  0  0  0  0
   -8.5019    5.6087    0.0000 H   0  0  0  0  0  0  0  0  0  0  0  0
   -8.7003    6.7557    0.0000 H   0  0  0  0  0  0  0  0  0  0  0  0
   -7.9759   10.3478    0.0000 H   0  0  0  0  0  0  0  0  0  0  0  0
   -9.1583    8.7499    0.0000 H   0  0  0  0  0  0  0  0  0  0  0  0
   -6.2458    9.3690    0.0000 H   0  0  0  0  0  0  0  0  0  0  0  0
   -9.9515    8.0856    0.0000 H   0  0  0  0  0  0  0  0  0  0  0  0
   -9.4534    5.7421    0.0000 H   0  0  0  0  0  0  0  0  0  0  0  0
   -8.5321    4.6029    0.0000 H   0  0  0  0  0  0  0  0  0  0  0  0
   -7.5287    3.0279    0.0000 H   0  0  0  0  0  0  0  0  0  0  0  0
   -6.2375    1.0482    0.0000 H   0  0  0  0  0  0  0  0  0  0  0  0
   -7.4199    2.6461    0.0000 H   0  0  0  0  0  0  0  0  0  0  0  0
   -4.5774    1.8578    0.0000 H   0  0  0  0  0  0  0  0  0  0  0  0
   -4.0173    2.3295    0.0000 H   0  0  0  0  0  0  0  0  0  0  0  0
   -2.6219    3.8258    0.0000 H   0  0  0  0  0  0  0  0  0  0  0  0
  1  2  1  0
  2  3  1  0
  3  4  1  0
  3  5  1  0
  5  6  1  0
  6  7  1  0
  7  8  1  0
  8  9  1  0
  9 10  1  0
 10 11  1  0
 11 12  2  3
  6 13  1  0
 13 14  1  0
 14 15  1  0
 15 16  1  0
 16 17  1  0
 17 18  1  0
 18 19  1  0
 19 20  1  0
 19 21  1  0
 21 22  1  0
 18 23  1  0
  3 24  1  0
 24 25  1  0
 25 26  1  0
 26 27  1  0
 27 28  1  0
 27 29  1  0
 26 30  1  0
 30 31  1  0
 31 32  1  0
 31 33  1  0
 15  6  1  0
 18 16  1  0
 31 24  1  0
 23 14  1  0
 33 24  1  0
 23 16  1  0
  1 34  1  0
  1 35  1  0
  1 36  1  0
  2 37  1  0
  2 38  1  0
  4 39  1  0
  5 40  1  0
  5 41  1  0
  7 42  1  0
  7 43  1  0
  8 44  1  0
  8 45  1  0
  9 46  1  0
  9 47  1  0
 10 48  1  0
 10 49  1  0
 12 50  1  0
 13 51  1  0
 13 52  1  0
 14 53  1  0
 15 54  1  0
 17 55  1  0
 17 56  1  0
 19 57  1  0
 20 58  1  0
 20 59  1  0
 20 60  1  0
 22 61  1  0
 22 62  1  0
 22 63  1  0
 23 64  1  0
 25 65  1  0
 25 66  1  0
 26 67  1  0
 27 68  1  0
 28 69  1  0
 28 70  1  0
 28 71  1  0
 29 72  1  0
 29 73  1  0
 30 74  1  0
 30 75  1  0
 32 76  1  0
 32 77  1  0
 32 78  1  0
 33 79  1  0
 33 80  1  0
M  END
$$$$
