
     RDKit          2D

 23 24  0  0  0  0  0  0  0  0999 V2000
    3.7708    3.8042    0.0000 C   0  0  0  0  0  0  0  0  0  0  0  0
    2.2790    3.6474    0.0000 C   0  0  0  0  0  0  0  0  0  0  0  0
    0.7872    3.4906    0.0000 O   0  0  0  0  0  0  0  0  0  0  0  0
    0.1771    2.1203    0.0000 C   0  0  0  0  0  0  0  0  0  0  0  0
   -0.4330    0.7500    0.0000 C   0  0  0  0  0  0  0  0  0  0  0  0
    0.8660    0.0000    0.0000 C   0  0  0  0  0  0  0  0  0  0  0  0
   -0.4330   -0.7500    0.0000 C   0  0  0  0  0  0  0  0  0  0  0  0
   -1.8596   -1.2135    0.0000 C   0  0  0  0  0  0  0  0  0  0  0  0
   -2.3231   -2.6401    0.0000 O   0  0  0  0  0  0  0  0  0  0  0  0
   -2.7413    0.0000    0.0000 O   0  0  0  0  0  0  0  0  0  0  0  0
   -1.8596    1.2135    0.0000 C   0  0  0  0  0  0  0  0  0  0  0  0
   -3.1586    1.9635    0.0000 F   0  0  0  0  0  0  0  0  0  0  0  0
    5.2625    3.9610    0.0000 H   0  0  0  0  0  0  0  0  0  0  0  0
    3.9276    2.3124    0.0000 H   0  0  0  0  0  0  0  0  0  0  0  0
    3.6140    5.2960    0.0000 H   0  0  0  0  0  0  0  0  0  0  0  0
    2.4358    2.1556    0.0000 H   0  0  0  0  0  0  0  0  0  0  0  0
    2.1222    5.1392    0.0000 H   0  0  0  0  0  0  0  0  0  0  0  0
   -0.6665    2.6272    0.0000 H   0  0  0  0  0  0  0  0  0  0  0  0
    1.3390    1.7651    0.0000 H   0  0  0  0  0  0  0  0  0  0  0  0
    1.7546    0.8286    0.0000 H   0  0  0  0  0  0  0  0  0  0  0  0
    1.8302   -1.1491    0.0000 H   0  0  0  0  0  0  0  0  0  0  0  0
    0.1771   -2.1203    0.0000 H   0  0  0  0  0  0  0  0  0  0  0  0
   -1.5719    2.1547    0.0000 H   0  0  0  0  0  0  0  0  0  0  0  0
  1  2  1  0
  2  3  1  0
  3  4  1  0
  4  5  1  0
  5  6  1  0
  6  7  1  0
  7  8  1  0
  8  9  2  0
  8 10  1  0
 10 11  1  0
 11 12  1  0
  7  5  1  0
 11  5  1  0
  1 13  1  0
  1 14  1  0
  1 15  1  0
  2 16  1  0
  2 17  1  0
  4 18  1  0
  4 19  1  0
  6 20  1  0
  6 21  1  0
  7 22  1  0
 11 23  1  0
M  END
$$$$
