
     RDKit          2D

 45 53  0  0  0  0  0  0  0  0999 V2000
    0.4274   -4.6915    0.0000 C   0  0  0  0  0  0  0  0  0  0  0  0
   -1.0685   -4.8030    0.0000 C   0  0  0  0  0  0  0  0  0  0  0  0
   -1.4380   -3.3493    0.0000 C   0  0  0  0  0  0  0  0  0  0  0  0
   -0.1679   -2.5512    0.0000 C   0  0  0  0  0  0  0  0  0  0  0  0
   -0.0000   -1.0607    0.0000 C   0  0  0  0  0  0  0  0  0  0  0  0
    1.0607    0.0000    0.0000 O   0  0  0  0  0  0  0  0  0  0  0  0
    0.0000    1.0607    0.0000 O   0  0  0  0  0  0  0  0  0  0  0  0
   -1.0607    0.0000    0.0000 C   0  0  0  0  0  0  0  0  0  0  0  0
   -2.5512   -0.1679    0.0000 C   0  0  0  0  0  0  0  0  0  0  0  0
   -4.0316   -0.4100    0.0000 C   0  0  0  0  0  0  0  0  0  0  0  0
   -5.0100   -1.5469    0.0000 C   0  0  0  0  0  0  0  0  0  0  0  0
   -6.3183   -2.2807    0.0000 C   0  0  0  0  0  0  0  0  0  0  0  0
   -5.0287   -3.0468    0.0000 C   0  0  0  0  0  0  0  0  0  0  0  0
   -4.0789   -4.2078    0.0000 C   0  0  0  0  0  0  0  0  0  0  0  0
   -4.3578   -5.6817    0.0000 C   0  0  0  0  0  0  0  0  0  0  0  0
   -3.8624   -7.0975    0.0000 C   0  0  0  0  0  0  0  0  0  0  0  0
   -2.3885   -7.3764    0.0000 C   0  0  0  0  0  0  0  0  0  0  0  0
   -3.5364   -6.4107    0.0000 C   0  0  0  0  0  0  0  0  0  0  0  0
   -2.8839   -5.9605    0.0000 C   0  0  0  0  0  0  0  0  0  0  0  0
   -2.6051   -4.4867    0.0000 C   0  0  0  0  0  0  0  0  0  0  0  0
   -3.3493   -1.4380    0.0000 C   0  0  0  0  0  0  0  0  0  0  0  0
   -4.4099   -0.3774    0.0000 O   0  0  0  0  0  0  0  0  0  0  0  0
   -2.8539   -2.8539    0.0000 O   0  0  0  0  0  0  0  0  0  0  0  0
    1.9232   -4.5800    0.0000 H   0  0  0  0  0  0  0  0  0  0  0  0
    0.5389   -6.1874    0.0000 H   0  0  0  0  0  0  0  0  0  0  0  0
    0.4990   -3.1932    0.0000 H   0  0  0  0  0  0  0  0  0  0  0  0
   -1.2184   -6.2955    0.0000 H   0  0  0  0  0  0  0  0  0  0  0  0
    0.8020   -3.6954    0.0000 H   0  0  0  0  0  0  0  0  0  0  0  0
    1.3320   -2.5662    0.0000 H   0  0  0  0  0  0  0  0  0  0  0  0
    1.4207   -1.5419    0.0000 H   0  0  0  0  0  0  0  0  0  0  0  0
   -1.7115    1.3515    0.0000 H   0  0  0  0  0  0  0  0  0  0  0  0
   -3.1885    1.1899    0.0000 H   0  0  0  0  0  0  0  0  0  0  0  0
   -4.0216    1.0900    0.0000 H   0  0  0  0  0  0  0  0  0  0  0  0
   -5.4014    0.2013    0.0000 H   0  0  0  0  0  0  0  0  0  0  0  0
   -7.2681   -1.1197    0.0000 H   0  0  0  0  0  0  0  0  0  0  0  0
   -7.2967   -3.4176    0.0000 H   0  0  0  0  0  0  0  0  0  0  0  0
   -6.1384   -4.0560    0.0000 H   0  0  0  0  0  0  0  0  0  0  0  0
   -5.4766   -4.7524    0.0000 H   0  0  0  0  0  0  0  0  0  0  0  0
   -5.8561   -5.6106    0.0000 H   0  0  0  0  0  0  0  0  0  0  0  0
   -4.6949   -8.3452    0.0000 H   0  0  0  0  0  0  0  0  0  0  0  0
   -1.2516   -8.3548    0.0000 H   0  0  0  0  0  0  0  0  0  0  0  0
   -4.6549   -7.4101    0.0000 H   0  0  0  0  0  0  0  0  0  0  0  0
   -4.9333   -5.8644    0.0000 H   0  0  0  0  0  0  0  0  0  0  0  0
   -4.3885   -2.5197    0.0000 H   0  0  0  0  0  0  0  0  0  0  0  0
   -5.8588   -0.7656    0.0000 H   0  0  0  0  0  0  0  0  0  0  0  0
  1  2  1  0
  2  3  1  0
  3  4  1  0
  4  5  1  0
  5  6  1  0
  6  7  1  0
  7  8  1  0
  8  9  1  0
  9 10  1  0
 10 11  1  0
 11 12  1  0
 12 13  1  0
 13 14  1  0
 14 15  1  0
 15 16  1  0
 16 17  1  0
 17 18  1  0
 17 19  1  0
 19 20  1  0
  9 21  1  0
 21 22  1  0
 21 23  1  0
 20  2  1  0
 20  3  1  0
 23  3  1  0
  8  5  1  0
 13 11  1  0
 20 14  1  0
 18 11  1  0
 19 15  1  0
 19 16  1  0
  1 24  1  0
  1 25  1  0
  1 26  1  0
  2 27  1  0
  4 28  1  0
  4 29  1  0
  5 30  1  0
  8 31  1  0
  9 32  1  0
 10 33  1  0
 10 34  1  0
 12 35  1  0
 12 36  1  0
 13 37  1  0
 14 38  1  0
 15 39  1  0
 16 40  1  0
 17 41  1  0
 18 42  1  0
 18 43  1  0
 21 44  1  0
 22 45  1  0
M  END
$$$$
