
     RDKit          2D

 63 67  0  0  0  0  0  0  0  0999 V2000
   -1.9827   -7.1762    0.0000 C   0  0  0  0  0  0  0  0  0  0  0  0
   -0.6565   -6.4753    0.0000 C   0  0  0  0  0  0  0  0  0  0  0  0
   -0.6004   -4.9764    0.0000 C   0  0  0  0  0  0  0  0  0  0  0  0
   -0.5443   -3.4774    0.0000 C   0  0  0  0  0  0  0  0  0  0  0  0
   -1.8144   -2.6794    0.0000 C   0  0  0  0  0  0  0  0  0  0  0  0
   -3.0845   -1.8813    0.0000 C   0  0  0  0  0  0  0  0  0  0  0  0
   -4.5834   -1.8252    0.0000 C   0  0  0  0  0  0  0  0  0  0  0  0
   -5.6037   -0.7256    0.0000 C   0  0  0  0  0  0  0  0  0  0  0  0
   -5.5476    0.7733    0.0000 C   0  0  0  0  0  0  0  0  0  0  0  0
   -7.0100    0.4395    0.0000 C   0  0  0  0  0  0  0  0  0  0  0  0
   -8.4724    0.1057    0.0000 C   0  0  0  0  0  0  0  0  0  0  0  0
   -9.9348   -0.2280    0.0000 N   0  0  0  0  0  0  0  0  0  0  0  0
  -10.3769   -1.6614    0.0000 C   0  0  0  0  0  0  0  0  0  0  0  0
   -4.4480    1.7936    0.0000 C   0  0  0  0  0  0  0  0  0  0  0  0
   -2.9491    1.7375    0.0000 C   0  0  0  0  0  0  0  0  0  0  0  0
   -2.7255    3.2207    0.0000 C   0  0  0  0  0  0  0  0  0  0  0  0
   -1.4265    3.9707    0.0000 Mg  0  0  0  0  0  2  0  0  0  0  0  0
   -0.0302    3.4227    0.0000 C   0  0  0  0  0  0  0  0  0  0  0  0
    1.4688    3.3666    0.0000 C   0  0  0  0  0  0  0  0  0  0  0  0
    1.5249    4.8656    0.0000 C   0  0  0  0  0  0  0  0  0  0  0  0
    0.8240    6.1918    0.0000 C   0  0  0  0  0  0  0  0  0  0  0  0
    0.0259    4.9217    0.0000 C   0  0  0  0  0  0  0  0  0  0  0  0
    0.4120    1.9894    0.0000 O   0  0  0  0  0  0  0  0  0  0  0  0
   -0.4330    0.7500    0.0000 C   0  0  0  0  0  0  0  0  0  0  0  0
    0.8660    0.0000    0.0000 C   0  0  0  0  0  0  0  0  0  0  0  0
   -0.4330   -0.7500    0.0000 O   0  0  0  0  0  0  0  0  0  0  0  0
   -1.9288    0.6379    0.0000 C   0  0  0  0  0  0  0  0  0  0  0  0
   -1.9849   -0.8610    0.0000 O   0  0  0  0  0  0  0  0  0  0  0  0
   -3.3088   -7.8771    0.0000 H   0  0  0  0  0  0  0  0  0  0  0  0
   -1.2818   -8.5024    0.0000 H   0  0  0  0  0  0  0  0  0  0  0  0
   -2.6836   -5.8500    0.0000 H   0  0  0  0  0  0  0  0  0  0  0  0
    0.6136   -7.2734    0.0000 H   0  0  0  0  0  0  0  0  0  0  0  0
    0.7819   -2.7765    0.0000 H   0  0  0  0  0  0  0  0  0  0  0  0
   -0.7327   -1.6401    0.0000 H   0  0  0  0  0  0  0  0  0  0  0  0
   -2.6124   -3.9494    0.0000 H   0  0  0  0  0  0  0  0  0  0  0  0
   -3.3486   -3.3579    0.0000 H   0  0  0  0  0  0  0  0  0  0  0  0
   -4.4304   -3.3174    0.0000 H   0  0  0  0  0  0  0  0  0  0  0  0
   -5.8143   -2.6826    0.0000 H   0  0  0  0  0  0  0  0  0  0  0  0
   -6.4559   -1.7726    0.0000 H   0  0  0  0  0  0  0  0  0  0  0  0
   -6.4874   -0.7853    0.0000 H   0  0  0  0  0  0  0  0  0  0  0  0
   -6.4049    2.0042    0.0000 H   0  0  0  0  0  0  0  0  0  0  0  0
   -7.3438    1.9019    0.0000 H   0  0  0  0  0  0  0  0  0  0  0  0
   -6.9287   -0.3535    0.0000 H   0  0  0  0  0  0  0  0  0  0  0  0
   -8.8062    1.5681    0.0000 H   0  0  0  0  0  0  0  0  0  0  0  0
   -8.1386   -1.3566    0.0000 H   0  0  0  0  0  0  0  0  0  0  0  0
  -10.9550    0.8715    0.0000 H   0  0  0  0  0  0  0  0  0  0  0  0
  -10.8190   -3.0948    0.0000 H   0  0  0  0  0  0  0  0  0  0  0  0
  -11.8103   -1.2193    0.0000 H   0  0  0  0  0  0  0  0  0  0  0  0
   -8.9436   -2.1035    0.0000 H   0  0  0  0  0  0  0  0  0  0  0  0
   -5.6114    2.7405    0.0000 H   0  0  0  0  0  0  0  0  0  0  0  0
   -4.1839    3.2701    0.0000 H   0  0  0  0  0  0  0  0  0  0  0  0
   -3.9897    0.6572    0.0000 H   0  0  0  0  0  0  0  0  0  0  0  0
   -4.2238    3.2918    0.0000 H   0  0  0  0  0  0  0  0  0  0  0  0
   -3.1676    4.6541    0.0000 H   0  0  0  0  0  0  0  0  0  0  0  0
    2.9677    3.3105    0.0000 H   0  0  0  0  0  0  0  0  0  0  0  0
    1.5958    1.8720    0.0000 H   0  0  0  0  0  0  0  0  0  0  0  0
    2.9873    5.1994    0.0000 H   0  0  0  0  0  0  0  0  0  0  0  0
    2.0083    7.1123    0.0000 H   0  0  0  0  0  0  0  0  0  0  0  0
   -0.2882    7.1982    0.0000 H   0  0  0  0  0  0  0  0  0  0  0  0
   -1.4074    5.3638    0.0000 H   0  0  0  0  0  0  0  0  0  0  0  0
    1.9631    1.0230    0.0000 H   0  0  0  0  0  0  0  0  0  0  0  0
    1.8302   -1.1491    0.0000 H   0  0  0  0  0  0  0  0  0  0  0  0
   -1.1324   -0.6332    0.0000 H   0  0  0  0  0  0  0  0  0  0  0  0
  1  2  1  0
  2  3  2  0
  3  4  2  0
  4  5  1  0
  5  6  1  0
  6  7  1  0
  7  8  1  0
  8  9  1  0
  9 10  1  0
 10 11  1  0
 11 12  1  0
 12 13  1  0
  9 14  1  0
 14 15  1  0
 15 16  1  0
 16 17  1  0
 17 18  1  0
 18 19  1  0
 19 20  1  0
 20 21  1  0
 21 22  1  0
 18 23  1  0
 23 24  1  0
 24 25  1  0
 25 26  1  0
 24 27  1  0
 27 28  1  0
 28  6  1  0
 27 15  1  0
 22 18  1  0
 26 24  1  0
 22 20  1  0
  1 29  1  0
  1 30  1  0
  1 31  1  0
  2 32  1  0
  4 33  1  0
  5 34  1  0
  5 35  1  0
  6 36  1  0
  7 37  1  0
  7 38  1  0
  8 39  1  0
  8 40  1  0
  9 41  1  0
 10 42  1  0
 10 43  1  0
 11 44  1  0
 11 45  1  0
 12 46  1  0
 13 47  1  0
 13 48  1  0
 13 49  1  0
 14 50  1  0
 14 51  1  0
 15 52  1  0
 16 53  1  0
 16 54  1  0
 19 55  1  0
 19 56  1  0
 20 57  1  0
 21 58  1  0
 21 59  1  0
 22 60  1  0
 25 61  1  0
 25 62  1  0
 27 63  1  0
M  END
$$$$
