
     RDKit          2D

 34 37  0  0  0  0  0  0  0  0999 V2000
    3.2286   -0.0000    0.0000 C   0  0  0  0  0  0  0  0  0  0  0  0
    1.7286    0.0000    0.0000 C   0  0  0  0  0  0  0  0  0  0  0  0
    1.0777    1.3515    0.0000 C   0  0  0  0  0  0  0  0  0  0  0  0
   -0.3846    1.6852    0.0000 C   0  0  0  0  0  0  0  0  0  0  0  0
   -1.5574    2.6205    0.0000 O   0  0  0  0  0  0  0  0  0  0  0  0
   -1.3338    4.1037    0.0000 C   0  0  0  0  0  0  0  0  0  0  0  0
    0.0625    4.6517    0.0000 C   0  0  0  0  0  0  0  0  0  0  0  0
   -1.1103    5.5870    0.0000 C   0  0  0  0  0  0  0  0  0  0  0  0
   -2.5066    5.0390    0.0000 C   0  0  0  0  0  0  0  0  0  0  0  0
   -3.9029    4.4909    0.0000 C   0  0  0  0  0  0  0  0  0  0  0  0
   -3.6793    5.9742    0.0000 O   0  0  0  0  0  0  0  0  0  0  0  0
   -1.5574    0.7500    0.0000 C   0  0  0  0  0  0  0  0  0  0  0  0
   -1.5574   -0.7500    0.0000 C   0  0  0  0  0  0  0  0  0  0  0  0
   -0.3846   -1.6852    0.0000 S   0  0  0  0  0  0  0  0  0  0  0  0
    1.0777   -1.3515    0.0000 C   0  0  0  0  0  0  0  0  0  0  0  0
    2.5401   -1.6852    0.0000 C   0  0  0  0  0  0  0  0  0  0  0  0
    4.1313   -1.1979    0.0000 H   0  0  0  0  0  0  0  0  0  0  0  0
    3.9786    1.2990    0.0000 H   0  0  0  0  0  0  0  0  0  0  0  0
    1.4044    2.6613    0.0000 H   0  0  0  0  0  0  0  0  0  0  0  0
    2.5401    1.6852    0.0000 H   0  0  0  0  0  0  0  0  0  0  0  0
    0.2662    3.0367    0.0000 H   0  0  0  0  0  0  0  0  0  0  0  0
    1.0242    3.7044    0.0000 H   0  0  0  0  0  0  0  0  0  0  0  0
    1.1872    5.6443    0.0000 H   0  0  0  0  0  0  0  0  0  0  0  0
   -0.8867    7.0702    0.0000 H   0  0  0  0  0  0  0  0  0  0  0  0
   -3.6057    3.0207    0.0000 H   0  0  0  0  0  0  0  0  0  0  0  0
   -5.4024    4.4535    0.0000 H   0  0  0  0  0  0  0  0  0  0  0  0
   -3.0496    0.5970    0.0000 H   0  0  0  0  0  0  0  0  0  0  0  0
   -2.5159    1.9038    0.0000 H   0  0  0  0  0  0  0  0  0  0  0  0
   -2.2082   -2.1015    0.0000 H   0  0  0  0  0  0  0  0  0  0  0  0
   -3.0496   -0.5970    0.0000 H   0  0  0  0  0  0  0  0  0  0  0  0
    1.0777   -2.8515    0.0000 H   0  0  0  0  0  0  0  0  0  0  0  0
    3.9509   -2.1948    0.0000 H   0  0  0  0  0  0  0  0  0  0  0  0
    2.2064   -3.1476    0.0000 H   0  0  0  0  0  0  0  0  0  0  0  0
    2.9848   -0.8073    0.0000 H   0  0  0  0  0  0  0  0  0  0  0  0
  1  2  2  3
  2  3  1  0
  3  4  1  0
  4  5  1  0
  6  5  1  6
  6  7  1  0
  7  8  1  0
  8  9  1  0
  9 10  1  0
 10 11  1  0
  4 12  1  0
 12 13  1  0
 13 14  1  0
 14 15  1  0
 15 16  1  0
 15  2  1  0
  8  6  1  0
  9 11  1  6
  9  6  1  0
  1 17  1  0
  1 18  1  0
  3 19  1  0
  3 20  1  0
  4 21  1  1
  7 22  1  0
  7 23  1  0
  8 24  1  1
 10 25  1  0
 10 26  1  0
 12 27  1  0
 12 28  1  0
 13 29  1  0
 13 30  1  0
 15 31  1  1
 16 32  1  0
 16 33  1  0
 16 34  1  0
M  END
$$$$
