
     RDKit          2D

110114  0  0  0  0  0  0  0  0999 V2000
   -5.7434    4.9124    0.0000 C   0  0  0  0  0  0  0  0  0  0  0  0
   -4.9454    3.6423    0.0000 C   0  0  0  0  0  0  0  0  0  0  0  0
   -4.1473    2.3722    0.0000 C   0  0  0  0  0  0  0  0  0  0  0  0
   -3.3493    1.1021    0.0000 C   0  0  0  0  0  0  0  0  0  0  0  0
   -2.5512   -0.1679    0.0000 C   0  0  0  0  0  0  0  0  0  0  0  0
   -3.8213   -0.9660    0.0000 Se  0  0  0  0  0  2  0  0  0  0  0  0
   -3.9893   -2.4566    0.0000 C   0  0  0  0  0  0  0  0  0  0  0  0
   -2.9286   -3.5172    0.0000 C   0  0  0  0  0  0  0  0  0  0  0  0
   -2.4332   -4.9330    0.0000 O   0  0  0  0  0  0  0  0  0  0  0  0
   -4.1987   -4.3153    0.0000 C   0  0  0  0  0  0  0  0  0  0  0  0
   -5.4688   -5.1133    0.0000 C   0  0  0  0  0  0  0  0  0  0  0  0
   -6.7389   -5.9114    0.0000 C   0  0  0  0  0  0  0  0  0  0  0  0
   -8.0089   -6.7094    0.0000 C   0  0  0  0  0  0  0  0  0  0  0  0
   -9.2790   -7.5075    0.0000 C   0  0  0  0  0  0  0  0  0  0  0  0
   -8.8070   -5.4393    0.0000 O   0  0  0  0  0  0  0  0  0  0  0  0
  -10.3059   -5.4954    0.0000 C   0  0  0  0  0  0  0  0  0  0  0  0
  -10.3620   -3.9965    0.0000 C   0  0  0  0  0  0  0  0  0  0  0  0
  -10.4181   -2.4975    0.0000 C   0  0  0  0  0  0  0  0  0  0  0  0
  -10.4742   -0.9986    0.0000 C   0  0  0  0  0  0  0  0  0  0  0  0
  -10.5303    0.5004    0.0000 C   0  0  0  0  0  0  0  0  0  0  0  0
  -11.8610   -4.0526    0.0000 C   0  0  0  0  0  0  0  0  0  0  0  0
  -11.8049   -5.5515    0.0000 C   0  0  0  0  0  0  0  0  0  0  0  0
  -11.7488   -7.0505    0.0000 C   0  0  0  0  0  0  0  0  0  0  0  0
  -11.6927   -8.5494    0.0000 C   0  0  0  0  0  0  0  0  0  0  0  0
  -13.2478   -7.1065    0.0000 C   0  0  0  0  0  0  0  0  0  0  0  0
  -14.7467   -7.1626    0.0000 C   0  0  0  0  0  0  0  0  0  0  0  0
   -7.2109   -7.9795    0.0000 C   0  0  0  0  0  0  0  0  0  0  0  0
   -6.8954   -9.4459    0.0000 C   0  0  0  0  0  0  0  0  0  0  0  0
   -8.3231   -8.9860    0.0000 C   0  0  0  0  0  0  0  0  0  0  0  0
   -9.0240  -10.3121    0.0000 C   0  0  0  0  0  0  0  0  0  0  0  0
   -1.4380   -3.3493    0.0000 C   0  0  0  0  0  0  0  0  0  0  0  0
   -0.1679   -2.5512    0.0000 C   0  0  0  0  0  0  0  0  0  0  0  0
   -0.0000   -1.0607    0.0000 N   0  0  0  0  0  0  0  0  0  0  0  0
    1.0607    0.0000    0.0000 N   0  0  0  0  0  0  0  0  0  0  0  0
    0.0000    1.0607    0.0000 C   0  0  0  0  0  0  0  0  0  0  0  0
   -1.0607    0.0000    0.0000 C   0  0  0  0  0  0  0  0  0  0  0  0
   -2.3589   -2.3589    0.0000 C   0  0  0  0  0  0  0  0  0  0  0  0
   -4.3444   -3.0218    0.0000 O   0  0  0  0  0  0  0  0  0  0  0  0
   -2.6537   -1.5164    0.0000 C   0  0  0  0  0  0  0  0  0  0  0  0
   -4.4099   -0.3774    0.0000 O   0  0  0  0  0  0  0  0  0  0  0  0
   -4.0217    1.0715    0.0000 C   0  0  0  0  0  0  0  0  0  0  0  0
   -3.6335    2.5204    0.0000 C   0  0  0  0  0  0  0  0  0  0  0  0
   -3.2453    3.9693    0.0000 C   0  0  0  0  0  0  0  0  0  0  0  0
   -5.0824    2.9086    0.0000 O   0  0  0  0  0  0  0  0  0  0  0  0
   -6.5415    6.1825    0.0000 H   0  0  0  0  0  0  0  0  0  0  0  0
   -7.0135    4.1144    0.0000 H   0  0  0  0  0  0  0  0  0  0  0  0
   -4.4733    5.7104    0.0000 H   0  0  0  0  0  0  0  0  0  0  0  0
   -6.2155    2.8443    0.0000 H   0  0  0  0  0  0  0  0  0  0  0  0
   -3.9061    4.7240    0.0000 H   0  0  0  0  0  0  0  0  0  0  0  0
   -2.8772    3.1703    0.0000 H   0  0  0  0  0  0  0  0  0  0  0  0
   -5.5052    1.7349    0.0000 H   0  0  0  0  0  0  0  0  0  0  0  0
   -4.7747    0.6351    0.0000 H   0  0  0  0  0  0  0  0  0  0  0  0
   -2.0792    1.9002    0.0000 H   0  0  0  0  0  0  0  0  0  0  0  0
   -5.4549   -2.1374    0.0000 H   0  0  0  0  0  0  0  0  0  0  0  0
   -5.2902   -3.2032    0.0000 H   0  0  0  0  0  0  0  0  0  0  0  0
   -3.2657   -6.1808    0.0000 H   0  0  0  0  0  0  0  0  0  0  0  0
   -3.5614   -5.6732    0.0000 H   0  0  0  0  0  0  0  0  0  0  0  0
   -5.4997   -3.5687    0.0000 H   0  0  0  0  0  0  0  0  0  0  0  0
   -4.6707   -6.3834    0.0000 H   0  0  0  0  0  0  0  0  0  0  0  0
   -6.2668   -3.8432    0.0000 H   0  0  0  0  0  0  0  0  0  0  0  0
   -7.5369   -4.6413    0.0000 H   0  0  0  0  0  0  0  0  0  0  0  0
   -5.7919   -7.0747    0.0000 H   0  0  0  0  0  0  0  0  0  0  0  0
  -10.4424   -8.4544    0.0000 H   0  0  0  0  0  0  0  0  0  0  0  0
  -10.3607   -6.4682    0.0000 H   0  0  0  0  0  0  0  0  0  0  0  0
   -8.8120   -8.9329    0.0000 H   0  0  0  0  0  0  0  0  0  0  0  0
  -10.2499   -6.9944    0.0000 H   0  0  0  0  0  0  0  0  0  0  0  0
   -8.8631   -3.9404    0.0000 H   0  0  0  0  0  0  0  0  0  0  0  0
   -8.9192   -2.4414    0.0000 H   0  0  0  0  0  0  0  0  0  0  0  0
  -11.9127   -2.3705    0.0000 H   0  0  0  0  0  0  0  0  0  0  0  0
   -8.9753   -0.9425    0.0000 H   0  0  0  0  0  0  0  0  0  0  0  0
  -11.9732   -1.0546    0.0000 H   0  0  0  0  0  0  0  0  0  0  0  0
  -10.5864    1.9993    0.0000 H   0  0  0  0  0  0  0  0  0  0  0  0
  -12.0292    0.4443    0.0000 H   0  0  0  0  0  0  0  0  0  0  0  0
   -9.0313    0.5565    0.0000 H   0  0  0  0  0  0  0  0  0  0  0  0
  -13.3599   -4.1086    0.0000 H   0  0  0  0  0  0  0  0  0  0  0  0
  -12.0994   -2.5716    0.0000 H   0  0  0  0  0  0  0  0  0  0  0  0
  -13.2995   -5.4245    0.0000 H   0  0  0  0  0  0  0  0  0  0  0  0
  -10.2499   -6.9944    0.0000 H   0  0  0  0  0  0  0  0  0  0  0  0
  -11.6366  -10.0484    0.0000 H   0  0  0  0  0  0  0  0  0  0  0  0
  -13.1737   -8.7878    0.0000 H   0  0  0  0  0  0  0  0  0  0  0  0
  -10.1938   -8.4933    0.0000 H   0  0  0  0  0  0  0  0  0  0  0  0
  -13.3748   -8.6012    0.0000 H   0  0  0  0  0  0  0  0  0  0  0  0
  -13.4861   -5.6256    0.0000 H   0  0  0  0  0  0  0  0  0  0  0  0
  -16.2457   -7.2187    0.0000 H   0  0  0  0  0  0  0  0  0  0  0  0
  -14.6906   -8.6616    0.0000 H   0  0  0  0  0  0  0  0  0  0  0  0
  -14.8028   -5.6637    0.0000 H   0  0  0  0  0  0  0  0  0  0  0  0
   -5.7630   -7.5877    0.0000 H   0  0  0  0  0  0  0  0  0  0  0  0
   -5.3964   -9.3899    0.0000 H   0  0  0  0  0  0  0  0  0  0  0  0
   -6.9178  -10.9458    0.0000 H   0  0  0  0  0  0  0  0  0  0  0  0
   -9.6108   -8.2167    0.0000 H   0  0  0  0  0  0  0  0  0  0  0  0
   -9.7249  -11.6383    0.0000 H   0  0  0  0  0  0  0  0  0  0  0  0
  -10.3502   -9.6112    0.0000 H   0  0  0  0  0  0  0  0  0  0  0  0
   -7.7932  -11.1695    0.0000 H   0  0  0  0  0  0  0  0  0  0  0  0
   -1.2701   -4.8398    0.0000 H   0  0  0  0  0  0  0  0  0  0  0  0
    0.3275   -3.9671    0.0000 H   0  0  0  0  0  0  0  0  0  0  0  0
    1.3226   -2.3833    0.0000 H   0  0  0  0  0  0  0  0  0  0  0  0
    2.5607    0.0000    0.0000 H   0  0  0  0  0  0  0  0  0  0  0  0
   -1.0607    2.1213    0.0000 H   0  0  0  0  0  0  0  0  0  0  0  0
    1.0607    2.1213    0.0000 H   0  0  0  0  0  0  0  0  0  0  0  0
   -1.5419    1.4207    0.0000 H   0  0  0  0  0  0  0  0  0  0  0  0
   -3.3775   -4.2595    0.0000 H   0  0  0  0  0  0  0  0  0  0  0  0
   -5.1074   -4.3133    0.0000 H   0  0  0  0  0  0  0  0  0  0  0  0
   -4.7747   -1.9050    0.0000 H   0  0  0  0  0  0  0  0  0  0  0  0
   -2.5728    0.6833    0.0000 H   0  0  0  0  0  0  0  0  0  0  0  0
   -5.5071    1.2802    0.0000 H   0  0  0  0  0  0  0  0  0  0  0  0
   -2.1481    2.3117    0.0000 H   0  0  0  0  0  0  0  0  0  0  0  0
   -2.8570    5.4182    0.0000 H   0  0  0  0  0  0  0  0  0  0  0  0
   -1.7964    3.5811    0.0000 H   0  0  0  0  0  0  0  0  0  0  0  0
   -4.4587    4.8511    0.0000 H   0  0  0  0  0  0  0  0  0  0  0  0
   -5.9641    4.1221    0.0000 H   0  0  0  0  0  0  0  0  0  0  0  0
  1  2  1  0
  2  3  1  0
  3  4  1  0
  4  5  1  0
  5  6  1  0
  6  7  1  0
  7  8  1  0
  8  9  1  0
  8 10  1  0
 10 11  1  0
 11 12  1  0
 12 13  1  0
 13 14  1  0
 13 15  1  0
 15 16  1  0
 16 17  1  0
 17 18  1  0
 18 19  1  0
 19 20  1  0
 17 21  1  0
 21 22  1  0
 22 23  1  0
 23 24  1  0
 23 25  1  0
 25 26  1  0
 13 27  1  0
 27 28  1  0
 28 29  1  0
 29 30  1  0
  8 31  1  0
 31 32  1  0
 32 33  1  0
 33 34  1  0
 34 35  1  0
 35 36  1  0
 31 37  1  0
 37 38  1  0
 37 39  1  0
 39 40  1  0
 40 41  1  0
 41 42  1  0
 42 43  1  0
 42 44  1  0
 36  5  1  0
 39  5  1  0
 22 16  1  0
 29 27  1  0
 36 33  1  0
  1 45  1  0
  1 46  1  0
  1 47  1  0
  2 48  1  0
  2 49  1  0
  3 50  1  0
  3 51  1  0
  4 52  1  0
  4 53  1  0
  7 54  1  0
  7 55  1  0
  9 56  1  0
 10 57  1  0
 10 58  1  0
 11 59  1  0
 11 60  1  0
 12 61  1  0
 12 62  1  0
 14 63  1  0
 14 64  1  0
 14 65  1  0
 16 66  1  0
 17 67  1  0
 18 68  1  0
 18 69  1  0
 19 70  1  0
 19 71  1  0
 20 72  1  0
 20 73  1  0
 20 74  1  0
 21 75  1  0
 21 76  1  0
 22 77  1  0
 23 78  1  0
 24 79  1  0
 24 80  1  0
 24 81  1  0
 25 82  1  0
 25 83  1  0
 26 84  1  0
 26 85  1  0
 26 86  1  0
 27 87  1  0
 28 88  1  0
 28 89  1  0
 29 90  1  0
 30 91  1  0
 30 92  1  0
 30 93  1  0
 31 94  1  0
 32 95  1  0
 32 96  1  0
 34 97  1  0
 35 98  1  0
 35 99  1  0
 36100  1  0
 37101  1  0
 38102  1  0
 39103  1  0
 41104  1  0
 41105  1  0
 42106  1  0
 43107  1  0
 43108  1  0
 43109  1  0
 44110  1  0
M  END
$$$$
