
     RDKit          2D

 35 36  0  0  0  0  0  0  0  0999 V2000
   -5.4251    4.6765    0.0000 C   0  0  0  0  0  0  0  0  0  0  0  0
   -4.2760    3.7123    0.0000 C   0  0  0  0  0  0  0  0  0  0  0  0
   -3.1270    2.7482    0.0000 N   0  0  0  0  0  0  0  0  0  0  0  0
   -1.7174    3.2612    0.0000 C   0  0  0  0  0  0  0  0  0  0  0  0
   -3.3874    1.2709    0.0000 C   0  0  0  0  0  0  0  0  0  0  0  0
   -1.9102    1.0105    0.0000 C   0  0  0  0  0  0  0  0  0  0  0  0
   -0.4330    0.7500    0.0000 C   0  0  0  0  0  0  0  0  0  0  0  0
    0.8660   -0.0000    0.0000 C   0  0  0  0  0  0  0  0  0  0  0  0
   -0.4330   -0.7500    0.0000 C   0  0  0  0  0  0  0  0  0  0  0  0
    0.0800   -2.1595    0.0000 C   0  0  0  0  0  0  0  0  0  0  0  0
    0.5930   -3.5691    0.0000 O   0  0  0  0  0  0  0  0  0  0  0  0
   -4.8646    1.5314    0.0000 C   0  0  0  0  0  0  0  0  0  0  0  0
   -6.3419    1.2709    0.0000 C   0  0  0  0  0  0  0  0  0  0  0  0
   -5.3777    0.1219    0.0000 O   0  0  0  0  0  0  0  0  0  0  0  0
   -6.5742    5.6407    0.0000 H   0  0  0  0  0  0  0  0  0  0  0  0
   -4.4609    5.8256    0.0000 H   0  0  0  0  0  0  0  0  0  0  0  0
   -6.3893    3.5275    0.0000 H   0  0  0  0  0  0  0  0  0  0  0  0
   -5.3731    2.6894    0.0000 H   0  0  0  0  0  0  0  0  0  0  0  0
   -3.3118    4.8614    0.0000 H   0  0  0  0  0  0  0  0  0  0  0  0
   -0.3079    3.7742    0.0000 H   0  0  0  0  0  0  0  0  0  0  0  0
   -2.2305    4.6707    0.0000 H   0  0  0  0  0  0  0  0  0  0  0  0
   -1.3555    2.5509    0.0000 H   0  0  0  0  0  0  0  0  0  0  0  0
   -3.6479   -0.2063    0.0000 H   0  0  0  0  0  0  0  0  0  0  0  0
   -2.3488   -0.4240    0.0000 H   0  0  0  0  0  0  0  0  0  0  0  0
   -1.4996    1.6937    0.0000 H   0  0  0  0  0  0  0  0  0  0  0  0
    0.0800    2.1595    0.0000 H   0  0  0  0  0  0  0  0  0  0  0  0
    1.8302    1.1491    0.0000 H   0  0  0  0  0  0  0  0  0  0  0  0
    1.9631   -1.0230    0.0000 H   0  0  0  0  0  0  0  0  0  0  0  0
   -1.8675   -1.1886    0.0000 H   0  0  0  0  0  0  0  0  0  0  0  0
   -1.3295   -2.6726    0.0000 H   0  0  0  0  0  0  0  0  0  0  0  0
    1.5416   -1.8222    0.0000 H   0  0  0  0  0  0  0  0  0  0  0  0
   -0.3711   -4.7181    0.0000 H   0  0  0  0  0  0  0  0  0  0  0  0
   -5.0475    3.0202    0.0000 H   0  0  0  0  0  0  0  0  0  0  0  0
   -6.8549    2.6805    0.0000 H   0  0  0  0  0  0  0  0  0  0  0  0
   -7.6409    0.5209    0.0000 H   0  0  0  0  0  0  0  0  0  0  0  0
  1  2  1  0
  2  3  1  0
  3  4  1  0
  3  5  1  0
  5  6  1  0
  6  7  1  0
  7  8  1  0
  8  9  1  0
  9 10  1  0
 10 11  1  0
  5 12  1  0
 12 13  1  0
 13 14  1  0
  9  7  1  0
 14 12  1  0
  1 15  1  0
  1 16  1  0
  1 17  1  0
  2 18  1  0
  2 19  1  0
  4 20  1  0
  4 21  1  0
  4 22  1  0
  5 23  1  0
  6 24  1  0
  6 25  1  0
  7 26  1  0
  8 27  1  0
  8 28  1  0
  9 29  1  0
 10 30  1  0
 10 31  1  0
 11 32  1  0
 12 33  1  0
 13 34  1  0
 13 35  1  0
M  END
$$$$
