
     RDKit          2D

 41 44  0  0  0  0  0  0  0  0999 V2000
   -6.2730    1.0447    0.0000 C   0  0  0  0  0  0  0  0  0  0  0  0
   -4.8726    1.5822    0.0000 C   0  0  0  0  0  0  0  0  0  0  0  0
   -3.4723    2.1198    0.0000 C   0  0  0  0  0  0  0  0  0  0  0  0
   -2.9347    0.7194    0.0000 C   0  0  0  0  0  0  0  0  0  0  0  0
   -2.3972   -0.6810    0.0000 C   0  0  0  0  0  0  0  0  0  0  0  0
   -2.1625   -2.1625    0.0000 C   0  0  0  0  0  0  0  0  0  0  0  0
   -0.6810   -2.3972    0.0000 C   0  0  0  0  0  0  0  0  0  0  0  0
   -0.0000   -1.0607    0.0000 C   0  0  0  0  0  0  0  0  0  0  0  0
    1.2135   -1.9423    0.0000 C   0  0  0  0  0  0  0  0  0  0  0  0
    1.0607    0.0000    0.0000 C   0  0  0  0  0  0  0  0  0  0  0  0
    2.1213    1.0607    0.0000 C   0  0  0  0  0  0  0  0  0  0  0  0
    3.1820    2.1213    0.0000 Br  0  0  0  0  0  0  0  0  0  0  0  0
    0.0000    1.0607    0.0000 C   0  0  0  0  0  0  0  0  0  0  0  0
   -1.0607    0.0000    0.0000 C   0  0  0  0  0  0  0  0  0  0  0  0
   -4.0098    3.5201    0.0000 C   0  0  0  0  0  0  0  0  0  0  0  0
   -5.1755    4.4641    0.0000 O   0  0  0  0  0  0  0  0  0  0  0  0
   -5.4102    2.9826    0.0000 C   0  0  0  0  0  0  0  0  0  0  0  0
   -6.9020    2.8258    0.0000 O   0  0  0  0  0  0  0  0  0  0  0  0
   -7.6734    0.5071    0.0000 H   0  0  0  0  0  0  0  0  0  0  0  0
   -6.8375    1.8508    0.0000 H   0  0  0  0  0  0  0  0  0  0  0  0
   -5.7355   -0.3557    0.0000 H   0  0  0  0  0  0  0  0  0  0  0  0
   -4.6584    0.7228    0.0000 H   0  0  0  0  0  0  0  0  0  0  0  0
   -2.0719    2.6573    0.0000 H   0  0  0  0  0  0  0  0  0  0  0  0
   -1.6103    1.4236    0.0000 H   0  0  0  0  0  0  0  0  0  0  0  0
   -3.7168    0.3035    0.0000 H   0  0  0  0  0  0  0  0  0  0  0  0
   -3.8461   -1.0692    0.0000 H   0  0  0  0  0  0  0  0  0  0  0  0
   -3.6605   -2.2410    0.0000 H   0  0  0  0  0  0  0  0  0  0  0  0
   -2.2410   -3.6605    0.0000 H   0  0  0  0  0  0  0  0  0  0  0  0
   -1.0692   -3.8461    0.0000 H   0  0  0  0  0  0  0  0  0  0  0  0
    0.0229   -2.7714    0.0000 H   0  0  0  0  0  0  0  0  0  0  0  0
    2.4271   -2.8240    0.0000 H   0  0  0  0  0  0  0  0  0  0  0  0
    2.2366   -0.8453    0.0000 H   0  0  0  0  0  0  0  0  0  0  0  0
    0.8271   -2.6396    0.0000 H   0  0  0  0  0  0  0  0  0  0  0  0
    2.2427   -0.9235    0.0000 H   0  0  0  0  0  0  0  0  0  0  0  0
    3.1820    0.0000    0.0000 H   0  0  0  0  0  0  0  0  0  0  0  0
    1.1979    2.2427    0.0000 H   0  0  0  0  0  0  0  0  0  0  0  0
   -1.0607    2.1213    0.0000 H   0  0  0  0  0  0  0  0  0  0  0  0
    0.9235    2.2427    0.0000 H   0  0  0  0  0  0  0  0  0  0  0  0
   -1.7878    1.3119    0.0000 H   0  0  0  0  0  0  0  0  0  0  0  0
   -2.7963    4.4018    0.0000 H   0  0  0  0  0  0  0  0  0  0  0  0
   -7.7837    4.0393    0.0000 H   0  0  0  0  0  0  0  0  0  0  0  0
  1  2  1  0
  2  3  1  0
  3  4  1  0
  4  5  1  0
  5  6  1  0
  6  7  1  0
  7  8  1  0
  8  9  1  0
  8 10  1  0
 10 11  1  0
 11 12  1  0
 10 13  1  0
 13 14  1  0
  3 15  1  0
 15 16  1  0
 16 17  1  0
 17 18  1  0
 17  2  1  0
 14  5  1  0
 17 15  1  0
 14  8  1  0
  1 19  1  0
  1 20  1  0
  1 21  1  0
  2 22  1  0
  3 23  1  0
  4 24  1  0
  4 25  1  0
  5 26  1  0
  6 27  1  0
  6 28  1  0
  7 29  1  0
  7 30  1  0
  9 31  1  0
  9 32  1  0
  9 33  1  0
 10 34  1  0
 11 35  1  0
 11 36  1  0
 13 37  1  0
 13 38  1  0
 14 39  1  0
 15 40  1  0
 18 41  1  0
M  END
$$$$
