
     RDKit          2D

 66 71  0  0  0  0  0  0  0  0999 V2000
   -9.5409  -12.5635    0.0000 C   0  0  0  0  0  0  0  0  0  0  0  0
   -9.0279  -11.1540    0.0000 C   0  0  0  0  0  0  0  0  0  0  0  0
   -8.5149   -9.7445    0.0000 C   0  0  0  0  0  0  0  0  0  0  0  0
   -9.8139   -8.9945    0.0000 S   0  0  0  0  0  0  0  0  0  0  0  0
   -9.8139   -7.4945    0.0000 S   0  0  0  0  0  0  0  0  0  0  0  0
  -11.1129   -6.7445    0.0000 C   0  0  0  0  0  0  0  0  0  0  0  0
  -12.4120   -7.4945    0.0000 C   0  0  0  0  0  0  0  0  0  0  0  0
  -12.4120   -5.9945    0.0000 C   0  0  0  0  0  0  0  0  0  0  0  0
  -11.1129   -5.2445    0.0000 C   0  0  0  0  0  0  0  0  0  0  0  0
   -9.6357   -4.9840    0.0000 C   0  0  0  0  0  0  0  0  0  0  0  0
   -8.1585   -4.7235    0.0000 C   0  0  0  0  0  0  0  0  0  0  0  0
   -6.6813   -4.4631    0.0000 C   0  0  0  0  0  0  0  0  0  0  0  0
   -5.2041   -4.2026    0.0000 C   0  0  0  0  0  0  0  0  0  0  0  0
   -3.7269   -3.9421    0.0000 C   0  0  0  0  0  0  0  0  0  0  0  0
   -3.9874   -2.4649    0.0000 C   0  0  0  0  0  0  0  0  0  0  0  0
   -4.2478   -0.9877    0.0000 C   0  0  0  0  0  0  0  0  0  0  0  0
   -4.5083    0.4895    0.0000 C   0  0  0  0  0  0  0  0  0  0  0  0
   -5.9855    0.2291    0.0000 Br  0  0  0  0  0  0  0  0  0  0  0  0
   -3.0311    0.7500    0.0000 C   0  0  0  0  0  0  0  0  0  0  0  0
   -1.5539    0.4895    0.0000 C   0  0  0  0  0  0  0  0  0  0  0  0
   -0.5897    1.6386    0.0000 C   0  0  0  0  0  0  0  0  0  0  0  0
    0.3745    2.7877    0.0000 C   0  0  0  0  0  0  0  0  0  0  0  0
   -1.1027    3.0481    0.0000 C   0  0  0  0  0  0  0  0  0  0  0  0
   -2.5799    3.3086    0.0000 O   0  0  0  0  0  0  0  0  0  0  0  0
   -3.5441    2.1595    0.0000 S   0  0  0  0  0  4  0  0  0  0  0  0
   -4.5083    3.3086    0.0000 O   0  0  0  0  0  0  0  0  0  0  0  0
   -5.4646   -2.7254    0.0000 C   0  0  0  0  0  0  0  0  0  0  0  0
   -7.0377  -10.0049    0.0000 C   0  0  0  0  0  0  0  0  0  0  0  0
   -7.5507   -8.5954    0.0000 C   0  0  0  0  0  0  0  0  0  0  0  0
   -8.1314  -13.0766    0.0000 H   0  0  0  0  0  0  0  0  0  0  0  0
  -10.9505  -12.0505    0.0000 H   0  0  0  0  0  0  0  0  0  0  0  0
  -10.0540  -13.9731    0.0000 H   0  0  0  0  0  0  0  0  0  0  0  0
   -7.6914  -11.8350    0.0000 H   0  0  0  0  0  0  0  0  0  0  0  0
  -10.4374  -10.6410    0.0000 H   0  0  0  0  0  0  0  0  0  0  0  0
  -11.8989   -8.9040    0.0000 H   0  0  0  0  0  0  0  0  0  0  0  0
  -13.8892   -7.7549    0.0000 H   0  0  0  0  0  0  0  0  0  0  0  0
  -13.7110   -5.2445    0.0000 H   0  0  0  0  0  0  0  0  0  0  0  0
  -11.6260   -3.8349    0.0000 H   0  0  0  0  0  0  0  0  0  0  0  0
   -9.8962   -3.5068    0.0000 H   0  0  0  0  0  0  0  0  0  0  0  0
   -9.3753   -6.4612    0.0000 H   0  0  0  0  0  0  0  0  0  0  0  0
   -7.8980   -6.2007    0.0000 H   0  0  0  0  0  0  0  0  0  0  0  0
   -8.4190   -3.2463    0.0000 H   0  0  0  0  0  0  0  0  0  0  0  0
   -6.4208   -5.9403    0.0000 H   0  0  0  0  0  0  0  0  0  0  0  0
   -7.1199   -3.0286    0.0000 H   0  0  0  0  0  0  0  0  0  0  0  0
   -4.9436   -5.6798    0.0000 H   0  0  0  0  0  0  0  0  0  0  0  0
   -2.2497   -3.6816    0.0000 H   0  0  0  0  0  0  0  0  0  0  0  0
   -3.4664   -5.4193    0.0000 H   0  0  0  0  0  0  0  0  0  0  0  0
   -2.5101   -2.2044    0.0000 H   0  0  0  0  0  0  0  0  0  0  0  0
   -5.7458   -1.0661    0.0000 H   0  0  0  0  0  0  0  0  0  0  0  0
   -3.3643   -1.0495    0.0000 H   0  0  0  0  0  0  0  0  0  0  0  0
   -4.7673    1.3366    0.0000 H   0  0  0  0  0  0  0  0  0  0  0  0
   -2.9231   -0.1291    0.0000 H   0  0  0  0  0  0  0  0  0  0  0  0
   -0.2548   -0.2605    0.0000 H   0  0  0  0  0  0  0  0  0  0  0  0
   -1.8913   -0.9720    0.0000 H   0  0  0  0  0  0  0  0  0  0  0  0
    0.5594    0.6744    0.0000 H   0  0  0  0  0  0  0  0  0  0  0  0
    1.6735    2.0377    0.0000 H   0  0  0  0  0  0  0  0  0  0  0  0
    0.8875    4.1972    0.0000 H   0  0  0  0  0  0  0  0  0  0  0  0
   -0.8423    4.5253    0.0000 H   0  0  0  0  0  0  0  0  0  0  0  0
   -4.2779    1.8481    0.0000 H   0  0  0  0  0  0  0  0  0  0  0  0
   -3.9953    4.7181    0.0000 H   0  0  0  0  0  0  0  0  0  0  0  0
   -6.9625   -2.8038    0.0000 H   0  0  0  0  0  0  0  0  0  0  0  0
   -5.9032   -1.2909    0.0000 H   0  0  0  0  0  0  0  0  0  0  0  0
   -6.8548  -11.4938    0.0000 H   0  0  0  0  0  0  0  0  0  0  0  0
   -5.5604   -9.7445    0.0000 H   0  0  0  0  0  0  0  0  0  0  0  0
   -6.2516   -7.8454    0.0000 H   0  0  0  0  0  0  0  0  0  0  0  0
   -8.5149   -7.4463    0.0000 H   0  0  0  0  0  0  0  0  0  0  0  0
  1  2  1  0
  2  3  1  0
  3  4  1  0
  4  5  1  0
  6  5  1  1
  6  7  1  0
  7  8  1  0
  8  9  1  0
  9 10  1  0
 10 11  1  0
 11 12  1  0
 12 13  1  0
 13 14  1  0
 14 15  1  0
 15 16  1  0
 16 17  1  0
 17 18  1  0
 17 19  1  0
 19 20  1  0
 20 21  1  0
 21 22  1  0
 22 23  1  0
 23 24  1  0
 24 25  1  0
 25 26  1  0
 15 27  1  0
  3 28  1  0
 28 29  1  0
 29  3  1  0
  8  6  1  0
 27 13  1  0
  9  6  1  0
 25 19  1  0
 23 21  1  0
  1 30  1  0
  1 31  1  0
  1 32  1  0
  2 33  1  0
  2 34  1  0
  7 35  1  0
  7 36  1  0
  8 37  1  6
  9 38  1  1
 10 39  1  0
 10 40  1  0
 11 41  1  0
 11 42  1  0
 12 43  1  0
 12 44  1  0
 13 45  1  1
 14 46  1  0
 14 47  1  0
 15 48  1  6
 16 49  1  0
 16 50  1  0
 17 51  1  1
 19 52  1  6
 20 53  1  0
 20 54  1  0
 21 55  1  6
 22 56  1  0
 22 57  1  0
 23 58  1  1
 25 59  1  1
 26 60  1  0
 27 61  1  0
 27 62  1  0
 28 63  1  0
 28 64  1  0
 29 65  1  0
 29 66  1  0
M  END
$$$$
