
     RDKit          2D

 60 64  0  0  0  0  0  0  0  0999 V2000
   -1.2544    4.2574    0.0000 C   0  0  0  0  0  0  0  0  0  0  0  0
   -0.2250    5.3484    0.0000 C   0  0  0  0  0  0  0  0  0  0  0  0
    0.8043    6.4395    0.0000 C   0  0  0  0  0  0  0  0  0  0  0  0
    1.8337    7.5306    0.0000 C   0  0  0  0  0  0  0  0  0  0  0  0
    2.8631    8.6216    0.0000 C   0  0  0  0  0  0  0  0  0  0  0  0
    1.9673    9.8248    0.0000 C   0  0  0  0  0  0  0  0  0  0  0  0
    2.5614   11.2021    0.0000 C   0  0  0  0  0  0  0  0  0  0  0  0
    3.4572    9.9989    0.0000 C   0  0  0  0  0  0  0  0  0  0  0  0
    0.8660    4.3191    0.0000 C   0  0  0  0  0  0  0  0  0  0  0  0
    2.3432    4.0586    0.0000 C   0  0  0  0  0  0  0  0  0  0  0  0
    3.3074    2.9095    0.0000 C   0  0  0  0  0  0  0  0  0  0  0  0
    3.3074    1.4095    0.0000 C   0  0  0  0  0  0  0  0  0  0  0  0
    2.3432    0.2605    0.0000 C   0  0  0  0  0  0  0  0  0  0  0  0
    0.8660    0.0000    0.0000 C   0  0  0  0  0  0  0  0  0  0  0  0
   -0.4330    0.7500    0.0000 C   0  0  0  0  0  0  0  0  0  0  0  0
   -0.9460    2.1595    0.0000 C   0  0  0  0  0  0  0  0  0  0  0  0
   -0.4330    3.5691    0.0000 C   0  0  0  0  0  0  0  0  0  0  0  0
   -0.4330   -0.7500    0.0000 C   0  0  0  0  0  0  0  0  0  0  0  0
   -1.9102   -1.0105    0.0000 O   0  0  0  0  0  0  0  0  0  0  0  0
    0.0800   -2.1595    0.0000 N   0  0  0  0  0  0  0  0  0  0  0  0
   -0.8842   -3.3086    0.0000 C   0  0  0  0  0  0  0  0  0  0  0  0
   -1.3972   -4.7181    0.0000 C   0  0  0  0  0  0  0  0  0  0  0  0
    0.0800   -4.4577    0.0000 C   0  0  0  0  0  0  0  0  0  0  0  0
    0.5930   -5.8672    0.0000 O   0  0  0  0  0  0  0  0  0  0  0  0
    1.3791   -3.7077    0.0000 O   0  0  0  0  0  0  0  0  0  0  0  0
   -2.5172    3.4478    0.0000 H   0  0  0  0  0  0  0  0  0  0  0  0
   -2.3455    5.2867    0.0000 H   0  0  0  0  0  0  0  0  0  0  0  0
   -0.8242    3.5863    0.0000 H   0  0  0  0  0  0  0  0  0  0  0  0
   -1.3161    6.3778    0.0000 H   0  0  0  0  0  0  0  0  0  0  0  0
   -0.1531    7.5942    0.0000 H   0  0  0  0  0  0  0  0  0  0  0  0
   -0.4041    7.3282    0.0000 H   0  0  0  0  0  0  0  0  0  0  0  0
    0.7426    8.5599    0.0000 H   0  0  0  0  0  0  0  0  0  0  0  0
    2.9248    6.5012    0.0000 H   0  0  0  0  0  0  0  0  0  0  0  0
    4.1163    7.7974    0.0000 H   0  0  0  0  0  0  0  0  0  0  0  0
    0.4775    9.6507    0.0000 H   0  0  0  0  0  0  0  0  0  0  0  0
    1.3082   12.0264    0.0000 H   0  0  0  0  0  0  0  0  0  0  0  0
    3.5908   12.2932    0.0000 H   0  0  0  0  0  0  0  0  0  0  0  0
    4.9470   10.1731    0.0000 H   0  0  0  0  0  0  0  0  0  0  0  0
    1.3708    5.7316    0.0000 H   0  0  0  0  0  0  0  0  0  0  0  0
    2.3520    5.5586    0.0000 H   0  0  0  0  0  0  0  0  0  0  0  0
    3.6379    4.8162    0.0000 H   0  0  0  0  0  0  0  0  0  0  0  0
    4.2783    4.0530    0.0000 H   0  0  0  0  0  0  0  0  0  0  0  0
    4.7861    2.6577    0.0000 H   0  0  0  0  0  0  0  0  0  0  0  0
    4.7861    1.6614    0.0000 H   0  0  0  0  0  0  0  0  0  0  0  0
    4.2783    0.2661    0.0000 H   0  0  0  0  0  0  0  0  0  0  0  0
    3.6379   -0.4971    0.0000 H   0  0  0  0  0  0  0  0  0  0  0  0
    2.3520   -1.2395    0.0000 H   0  0  0  0  0  0  0  0  0  0  0  0
    1.2034   -1.4616    0.0000 H   0  0  0  0  0  0  0  0  0  0  0  0
   -1.8675    0.3114    0.0000 H   0  0  0  0  0  0  0  0  0  0  0  0
   -2.2494    1.4171    0.0000 H   0  0  0  0  0  0  0  0  0  0  0  0
   -2.3302    2.7375    0.0000 H   0  0  0  0  0  0  0  0  0  0  0  0
   -1.9305    3.6563    0.0000 H   0  0  0  0  0  0  0  0  0  0  0  0
   -1.1218    4.9016    0.0000 H   0  0  0  0  0  0  0  0  0  0  0  0
   -2.5912   -2.3470    0.0000 H   0  0  0  0  0  0  0  0  0  0  0  0
    1.5572   -2.4200    0.0000 H   0  0  0  0  0  0  0  0  0  0  0  0
   -2.2649   -2.7225    0.0000 H   0  0  0  0  0  0  0  0  0  0  0  0
   -2.8744   -4.4577    0.0000 H   0  0  0  0  0  0  0  0  0  0  0  0
   -1.3972   -6.2181    0.0000 H   0  0  0  0  0  0  0  0  0  0  0  0
    2.0703   -6.1277    0.0000 H   0  0  0  0  0  0  0  0  0  0  0  0
    2.6781   -4.4577    0.0000 H   0  0  0  0  0  0  0  0  0  0  0  0
  1  2  1  0
  2  3  1  0
  3  4  1  0
  4  5  1  0
  5  6  1  0
  6  7  1  0
  7  8  1  0
  2  9  1  0
  9 10  1  0
 10 11  1  0
 11 12  1  0
 12 13  1  0
 13 14  1  0
 14 15  1  0
 15 16  1  0
 16 17  1  0
 15 18  1  0
 18 19  1  0
 18 20  1  0
 20 21  1  0
 21 22  1  0
 22 23  1  0
 23 24  1  0
 23 25  1  0
  8  5  1  0
 17  9  1  0
 23 21  1  0
  8  6  1  0
 18 14  1  0
  1 26  1  0
  1 27  1  0
  1 28  1  0
  2 29  1  0
  3 30  1  0
  3 31  1  0
  4 32  1  0
  4 33  1  0
  5 34  1  0
  6 35  1  0
  7 36  1  0
  7 37  1  0
  8 38  1  0
  9 39  1  0
 10 40  1  0
 10 41  1  0
 11 42  1  0
 11 43  1  0
 12 44  1  0
 12 45  1  0
 13 46  1  0
 13 47  1  0
 14 48  1  0
 15 49  1  0
 16 50  1  0
 16 51  1  0
 17 52  1  0
 17 53  1  0
 19 54  1  0
 20 55  1  0
 21 56  1  0
 22 57  1  0
 22 58  1  0
 24 59  1  0
 25 60  1  0
M  END
$$$$
