
     RDKit          2D

 47 55  0  0  0  0  0  0  0  0999 V2000
    8.3469    4.3191    0.0000 F   0  0  0  0  0  0  0  0  0  0  0  0
    6.8697    4.0586    0.0000 C   0  0  0  0  0  0  0  0  0  0  0  0
    5.3925    3.7981    0.0000 C   0  0  0  0  0  0  0  0  0  0  0  0
    4.8794    5.2077    0.0000 F   0  0  0  0  0  0  0  0  0  0  0  0
    5.3925    2.2981    0.0000 C   0  0  0  0  0  0  0  0  0  0  0  0
    4.0934    1.5481    0.0000 C   0  0  0  0  0  0  0  0  0  0  0  0
    2.7944    2.2981    0.0000 C   0  0  0  0  0  0  0  0  0  0  0  0
    1.8302    1.1491    0.0000 C   0  0  0  0  0  0  0  0  0  0  0  0
    0.8660    0.0000    0.0000 C   0  0  0  0  0  0  0  0  0  0  0  0
    1.8302   -1.1491    0.0000 C   0  0  0  0  0  0  0  0  0  0  0  0
    0.3530   -1.4095    0.0000 C   0  0  0  0  0  0  0  0  0  0  0  0
    0.6135   -2.8868    0.0000 C   0  0  0  0  0  0  0  0  0  0  0  0
    1.5776   -4.0358    0.0000 C   0  0  0  0  0  0  0  0  0  0  0  0
    0.6135   -5.1849    0.0000 C   0  0  0  0  0  0  0  0  0  0  0  0
    0.1004   -6.5944    0.0000 C   0  0  0  0  0  0  0  0  0  0  0  0
    1.5776   -6.3340    0.0000 C   0  0  0  0  0  0  0  0  0  0  0  0
    2.0907   -2.6263    0.0000 C   0  0  0  0  0  0  0  0  0  0  0  0
    1.8302    3.4472    0.0000 C   0  0  0  0  0  0  0  0  0  0  0  0
    1.3172    4.8567    0.0000 C   0  0  0  0  0  0  0  0  0  0  0  0
    2.7944    4.5963    0.0000 C   0  0  0  0  0  0  0  0  0  0  0  0
    3.7586    5.7453    0.0000 C   0  0  0  0  0  0  0  0  0  0  0  0
    4.2716    4.3358    0.0000 C   0  0  0  0  0  0  0  0  0  0  0  0
    4.0934    3.0481    0.0000 C   0  0  0  0  0  0  0  0  0  0  0  0
    6.6092    5.5358    0.0000 H   0  0  0  0  0  0  0  0  0  0  0  0
    7.1301    2.5814    0.0000 H   0  0  0  0  0  0  0  0  0  0  0  0
    6.6915    1.5481    0.0000 H   0  0  0  0  0  0  0  0  0  0  0  0
    4.0934    0.0481    0.0000 H   0  0  0  0  0  0  0  0  0  0  0  0
    0.6980    1.8843    0.0000 H   0  0  0  0  0  0  0  0  0  0  0  0
    3.0882    0.3321    0.0000 H   0  0  0  0  0  0  0  0  0  0  0  0
   -0.4330    0.7500    0.0000 H   0  0  0  0  0  0  0  0  0  0  0  0
    3.2568   -0.6856    0.0000 H   0  0  0  0  0  0  0  0  0  0  0  0
   -1.1413   -1.2788    0.0000 H   0  0  0  0  0  0  0  0  0  0  0  0
   -0.7460   -3.5207    0.0000 H   0  0  0  0  0  0  0  0  0  0  0  0
    2.9584   -4.6219    0.0000 H   0  0  0  0  0  0  0  0  0  0  0  0
   -0.6856   -4.4349    0.0000 H   0  0  0  0  0  0  0  0  0  0  0  0
   -1.3768   -6.3340    0.0000 H   0  0  0  0  0  0  0  0  0  0  0  0
    0.1004   -8.0944    0.0000 H   0  0  0  0  0  0  0  0  0  0  0  0
    2.0907   -7.7435    0.0000 H   0  0  0  0  0  0  0  0  0  0  0  0
    2.9584   -5.7479    0.0000 H   0  0  0  0  0  0  0  0  0  0  0  0
    3.5850   -2.7570    0.0000 H   0  0  0  0  0  0  0  0  0  0  0  0
    0.5875    2.9197    0.0000 H   0  0  0  0  0  0  0  0  0  0  0  0
   -0.1600    4.5963    0.0000 H   0  0  0  0  0  0  0  0  0  0  0  0
    1.3172    6.3567    0.0000 H   0  0  0  0  0  0  0  0  0  0  0  0
    2.7944    6.8944    0.0000 H   0  0  0  0  0  0  0  0  0  0  0  0
    5.0576    6.4953    0.0000 H   0  0  0  0  0  0  0  0  0  0  0  0
    5.7488    4.5963    0.0000 H   0  0  0  0  0  0  0  0  0  0  0  0
    4.4645    3.5623    0.0000 H   0  0  0  0  0  0  0  0  0  0  0  0
  1  2  1  0
  2  3  1  0
  3  4  1  0
  3  5  1  0
  5  6  1  0
  6  7  1  0
  7  8  1  0
  8  9  1  0
  9 10  1  0
 10 11  1  0
 11 12  1  0
 12 13  1  0
 13 14  1  0
 14 15  1  0
 15 16  1  0
 13 17  1  0
  7 18  1  0
 18 19  1  0
 19 20  1  0
 20 21  1  0
 21 22  1  0
  7 23  1  0
 23  3  1  0
 23  5  1  0
 23  6  1  0
 11  9  1  0
 17 12  1  0
 20 18  1  0
 17 10  1  0
 22 20  1  0
 16 14  1  0
  2 24  1  0
  2 25  1  0
  5 26  1  0
  6 27  1  0
  8 28  1  0
  8 29  1  0
  9 30  1  0
 10 31  1  0
 11 32  1  0
 12 33  1  0
 13 34  1  0
 14 35  1  0
 15 36  1  0
 15 37  1  0
 16 38  1  0
 16 39  1  0
 17 40  1  0
 18 41  1  0
 19 42  1  0
 19 43  1  0
 21 44  1  0
 21 45  1  0
 22 46  1  0
 22 47  1  0
M  END
$$$$
