
     RDKit          2D

 63 67  0  0  0  0  0  0  0  0999 V2000
    6.1490    2.0322    0.0000 O   0  0  0  0  0  1  0  0  0  0  0  0
    4.7631    1.4582    0.0000 C   0  0  0  0  0  0  0  0  0  0  0  0
    5.2639    0.0442    0.0000 S   0  0  0  0  0  1  0  0  0  0  0  0
    3.9572    2.7232    0.0000 C   0  0  0  0  0  0  0  0  0  0  0  0
    3.2646    1.3927    0.0000 C   0  0  0  0  0  0  0  0  0  0  0  0
    3.0688   -0.0944    0.0000 C   0  0  0  0  0  0  0  0  0  0  0  0
    2.8730   -1.5816    0.0000 C   0  0  0  0  0  0  0  0  0  0  0  0
    2.6772   -3.0688    0.0000 C   0  0  0  0  0  0  0  0  0  0  0  0
    2.4814   -4.5559    0.0000 C   0  0  0  0  0  0  0  0  0  0  0  0
    2.2856   -6.0431    0.0000 N   0  0  0  0  0  0  0  0  0  0  0  0
    0.8998   -6.6171    0.0000 C   0  0  0  0  0  0  0  0  0  0  0  0
   -0.2902   -5.7040    0.0000 C   0  0  0  0  0  0  0  0  0  0  0  0
   -0.4860   -7.1912    0.0000 C   0  0  0  0  0  0  0  0  0  0  0  0
    0.7040   -8.1043    0.0000 C   0  0  0  0  0  0  0  0  0  0  0  0
    2.1346   -8.5554    0.0000 C   0  0  0  0  0  0  0  0  0  0  0  0
    3.5652   -9.0064    0.0000 C   0  0  0  0  0  0  0  0  0  0  0  0
    5.0637   -8.9410    0.0000 C   0  0  0  0  0  0  0  0  0  0  0  0
    4.2578   -7.6759    0.0000 C   0  0  0  0  0  0  0  0  0  0  0  0
    1.3858   -1.3858    0.0000 C   0  0  0  0  0  0  0  0  0  0  0  0
    1.9598    0.0000    0.0000 C   0  0  0  0  0  0  0  0  0  0  0  0
    1.3858    1.3858    0.0000 C   0  0  0  0  0  0  0  0  0  0  0  0
   -0.0000    1.9598    0.0000 C   0  0  0  0  0  0  0  0  0  0  0  0
   -1.3858    1.3858    0.0000 C   0  0  0  0  0  0  0  0  0  0  0  0
   -1.9598   -0.0000    0.0000 C   0  0  0  0  0  0  0  0  0  0  0  0
   -1.3858   -1.3858    0.0000 C   0  0  0  0  0  0  0  0  0  0  0  0
   -0.0000   -1.9598    0.0000 C   0  0  0  0  0  0  0  0  0  0  0  0
    2.7672    3.6364    0.0000 H   0  0  0  0  0  0  0  0  0  0  0  0
    5.0631    3.7366    0.0000 H   0  0  0  0  0  0  0  0  0  0  0  0
    1.9856    2.1765    0.0000 H   0  0  0  0  0  0  0  0  0  0  0  0
    2.3271    0.1978    0.0000 H   0  0  0  0  0  0  0  0  0  0  0  0
    4.5210   -0.4701    0.0000 H   0  0  0  0  0  0  0  0  0  0  0  0
    4.3602   -1.7774    0.0000 H   0  0  0  0  0  0  0  0  0  0  0  0
    4.1294   -3.4444    0.0000 H   0  0  0  0  0  0  0  0  0  0  0  0
    4.1771   -3.0818    0.0000 H   0  0  0  0  0  0  0  0  0  0  0  0
    3.9686   -4.7517    0.0000 H   0  0  0  0  0  0  0  0  0  0  0  0
    1.0292   -4.1803    0.0000 H   0  0  0  0  0  0  0  0  0  0  0  0
    3.4756   -6.9563    0.0000 H   0  0  0  0  0  0  0  0  0  0  0  0
    0.2350   -4.2990    0.0000 H   0  0  0  0  0  0  0  0  0  0  0  0
   -1.7208   -5.2529    0.0000 H   0  0  0  0  0  0  0  0  0  0  0  0
   -1.8718   -7.7652    0.0000 H   0  0  0  0  0  0  0  0  0  0  0  0
    0.0114   -9.4348    0.0000 H   0  0  0  0  0  0  0  0  0  0  0  0
    1.6835   -9.9859    0.0000 H   0  0  0  0  0  0  0  0  0  0  0  0
    2.5856   -7.1248    0.0000 H   0  0  0  0  0  0  0  0  0  0  0  0
    3.3694  -10.4936    0.0000 H   0  0  0  0  0  0  0  0  0  0  0  0
    5.3884  -10.4054    0.0000 H   0  0  0  0  0  0  0  0  0  0  0  0
    6.4496   -8.3670    0.0000 H   0  0  0  0  0  0  0  0  0  0  0  0
    5.3637   -6.6625    0.0000 H   0  0  0  0  0  0  0  0  0  0  0  0
    3.0678   -6.7628    0.0000 H   0  0  0  0  0  0  0  0  0  0  0  0
    1.7614   -2.8380    0.0000 H   0  0  0  0  0  0  0  0  0  0  0  0
    3.0297    1.0514    0.0000 H   0  0  0  0  0  0  0  0  0  0  0  0
    3.3355   -0.5980    0.0000 H   0  0  0  0  0  0  0  0  0  0  0  0
    1.7614    2.8380    0.0000 H   0  0  0  0  0  0  0  0  0  0  0  0
    2.7040    2.1017    0.0000 H   0  0  0  0  0  0  0  0  0  0  0  0
   -0.7613    3.2523    0.0000 H   0  0  0  0  0  0  0  0  0  0  0  0
    0.7613    3.2523    0.0000 H   0  0  0  0  0  0  0  0  0  0  0  0
   -2.8380    1.7614    0.0000 H   0  0  0  0  0  0  0  0  0  0  0  0
   -1.7614    2.8380    0.0000 H   0  0  0  0  0  0  0  0  0  0  0  0
   -3.2523   -0.7613    0.0000 H   0  0  0  0  0  0  0  0  0  0  0  0
   -3.2523    0.7613    0.0000 H   0  0  0  0  0  0  0  0  0  0  0  0
   -1.7614   -2.8380    0.0000 H   0  0  0  0  0  0  0  0  0  0  0  0
   -2.8380   -1.7614    0.0000 H   0  0  0  0  0  0  0  0  0  0  0  0
    0.7613   -3.2523    0.0000 H   0  0  0  0  0  0  0  0  0  0  0  0
   -0.7613   -3.2523    0.0000 H   0  0  0  0  0  0  0  0  0  0  0  0
  1  2  1  0
  2  3  1  0
  2  4  1  0
  4  5  1  0
  5  6  1  0
  6  7  1  0
  7  8  1  0
  8  9  1  0
  9 10  1  0
 10 11  1  0
 11 12  1  0
 12 13  1  0
 13 14  1  0
 14 15  1  0
 15 16  1  0
 16 17  1  0
 17 18  1  0
  7 19  1  0
 19 20  1  0
 20 21  1  0
 21 22  1  0
 22 23  1  0
 23 24  1  0
 24 25  1  0
 25 26  1  0
  5  2  1  0
 13 11  1  0
 18 16  1  0
 26 19  1  0
 14 11  1  0
  4 27  1  0
  4 28  1  0
  5 29  1  0
  6 30  1  0
  6 31  1  0
  7 32  1  0
  8 33  1  0
  8 34  1  0
  9 35  1  0
  9 36  1  0
 10 37  1  0
 12 38  1  0
 12 39  1  0
 13 40  1  0
 14 41  1  0
 15 42  1  0
 15 43  1  0
 16 44  1  0
 17 45  1  0
 17 46  1  0
 18 47  1  0
 18 48  1  0
 19 49  1  0
 20 50  1  0
 20 51  1  0
 21 52  1  0
 21 53  1  0
 22 54  1  0
 22 55  1  0
 23 56  1  0
 23 57  1  0
 24 58  1  0
 24 59  1  0
 25 60  1  0
 25 61  1  0
 26 62  1  0
 26 63  1  0
M  RAD  2   1   2   3   2
M  END
$$$$
