
     RDKit          2D

105111  0  0  0  0  0  0  0  0999 V2000
    4.0433    9.3218    0.0000 C   0  0  0  0  0  0  0  0  0  0  0  0
    3.2485    8.0498    0.0000 C   0  0  0  0  0  0  0  0  0  0  0  0
    1.7494    8.1021    0.0000 C   0  0  0  0  0  0  0  0  0  0  0  0
    1.9581    9.5875    0.0000 C   0  0  0  0  0  0  0  0  0  0  0  0
    0.6099   10.2451    0.0000 C   0  0  0  0  0  0  0  0  0  0  0  0
   -0.5721   11.1686    0.0000 C   0  0  0  0  0  0  0  0  0  0  0  0
   -1.7541   12.0921    0.0000 C   0  0  0  0  0  0  0  0  0  0  0  0
    0.3514   12.3506    0.0000 C   0  0  0  0  0  0  0  0  0  0  0  0
    1.2749   13.5326    0.0000 C   0  0  0  0  0  0  0  0  0  0  0  0
   -0.4321    9.1661    0.0000 C   0  0  0  0  0  0  0  0  0  0  0  0
    0.2722    7.8416    0.0000 C   0  0  0  0  0  0  0  0  0  0  0  0
    0.6856    6.3998    0.0000 C   0  0  0  0  0  0  0  0  0  0  0  0
    1.0991    4.9579    0.0000 C   0  0  0  0  0  0  0  0  0  0  0  0
   -0.3927    4.8011    0.0000 C   0  0  0  0  0  0  0  0  0  0  0  0
   -1.0028    3.4307    0.0000 C   0  0  0  0  0  0  0  0  0  0  0  0
   -2.4946    3.2740    0.0000 C   0  0  0  0  0  0  0  0  0  0  0  0
   -3.3763    4.4875    0.0000 C   0  0  0  0  0  0  0  0  0  0  0  0
   -2.1628    5.3692    0.0000 N   0  0  0  0  0  0  0  0  0  0  0  0
   -4.2580    5.7010    0.0000 C   0  0  0  0  0  0  0  0  0  0  0  0
   -5.7497    5.5442    0.0000 C   0  0  0  0  0  0  0  0  0  0  0  0
   -4.5898    3.6058    0.0000 C   0  0  0  0  0  0  0  0  0  0  0  0
   -5.8033    2.7241    0.0000 C   0  0  0  0  0  0  0  0  0  0  0  0
   -7.0169    1.8424    0.0000 C   0  0  0  0  0  0  0  0  0  0  0  0
   -8.2304    0.9608    0.0000 C   0  0  0  0  0  0  0  0  0  0  0  0
   -9.6007    1.5709    0.0000 C   0  0  0  0  0  0  0  0  0  0  0  0
   -8.0736   -0.5310    0.0000 C   0  0  0  0  0  0  0  0  0  0  0  0
   -0.1211    2.2172    0.0000 C   0  0  0  0  0  0  0  0  0  0  0  0
    1.3706    2.3740    0.0000 C   0  0  0  0  0  0  0  0  0  0  0  0
    1.9807    3.7443    0.0000 C   0  0  0  0  0  0  0  0  0  0  0  0
    1.9807    1.0037    0.0000 C   0  0  0  0  0  0  0  0  0  0  0  0
    0.8660    0.0000    0.0000 C   0  0  0  0  0  0  0  0  0  0  0  0
    1.7477   -1.2135    0.0000 C   0  0  0  0  0  0  0  0  0  0  0  0
   -0.4330    0.7500    0.0000 C   0  0  0  0  0  0  0  0  0  0  0  0
   -0.4330   -0.7500    0.0000 C   0  0  0  0  0  0  0  0  0  0  0  0
    0.0800   -2.1595    0.0000 C   0  0  0  0  0  0  0  0  0  0  0  0
   -1.2190   -2.9095    0.0000 C   0  0  0  0  0  0  0  0  0  0  0  0
   -1.2190   -4.4095    0.0000 C   0  0  0  0  0  0  0  0  0  0  0  0
   -2.7108   -4.5663    0.0000 O   0  0  0  0  0  0  0  0  0  0  0  0
   -0.9072   -5.8768    0.0000 O   0  0  0  0  0  0  0  0  0  0  0  0
    0.5846   -6.0336    0.0000 C   0  0  0  0  0  0  0  0  0  0  0  0
    0.2728   -7.5008    0.0000 C   0  0  0  0  0  0  0  0  0  0  0  0
    1.1947   -4.6632    0.0000 C   0  0  0  0  0  0  0  0  0  0  0  0
    2.6620   -4.3514    0.0000 C   0  0  0  0  0  0  0  0  0  0  0  0
    0.0800   -3.6595    0.0000 C   0  0  0  0  0  0  0  0  0  0  0  0
    5.5424    9.2695    0.0000 H   0  0  0  0  0  0  0  0  0  0  0  0
    3.3391   10.6463    0.0000 H   0  0  0  0  0  0  0  0  0  0  0  0
    3.9527    6.7253    0.0000 H   0  0  0  0  0  0  0  0  0  0  0  0
    2.0356    6.6297    0.0000 H   0  0  0  0  0  0  0  0  0  0  0  0
    2.4712   10.9971    0.0000 H   0  0  0  0  0  0  0  0  0  0  0  0
    3.1731    9.5876    0.0000 H   0  0  0  0  0  0  0  0  0  0  0  0
    1.1674   10.9334    0.0000 H   0  0  0  0  0  0  0  0  0  0  0  0
   -1.3453   10.3954    0.0000 H   0  0  0  0  0  0  0  0  0  0  0  0
   -2.9361   13.0156    0.0000 H   0  0  0  0  0  0  0  0  0  0  0  0
   -1.2979   12.8513    0.0000 H   0  0  0  0  0  0  0  0  0  0  0  0
   -2.6776   10.9100    0.0000 H   0  0  0  0  0  0  0  0  0  0  0  0
   -0.2749   12.9769    0.0000 H   0  0  0  0  0  0  0  0  0  0  0  0
    1.1106   11.8944    0.0000 H   0  0  0  0  0  0  0  0  0  0  0  0
    2.1984   14.7146    0.0000 H   0  0  0  0  0  0  0  0  0  0  0  0
    0.0929   14.4561    0.0000 H   0  0  0  0  0  0  0  0  0  0  0  0
    2.4569   12.6091    0.0000 H   0  0  0  0  0  0  0  0  0  0  0  0
   -1.6756    8.3273    0.0000 H   0  0  0  0  0  0  0  0  0  0  0  0
   -1.2318    9.9118    0.0000 H   0  0  0  0  0  0  0  0  0  0  0  0
   -1.1186    7.2797    0.0000 H   0  0  0  0  0  0  0  0  0  0  0  0
   -0.7959    6.1651    0.0000 H   0  0  0  0  0  0  0  0  0  0  0  0
    2.1671    6.6344    0.0000 H   0  0  0  0  0  0  0  0  0  0  0  0
    2.4473    5.6154    0.0000 H   0  0  0  0  0  0  0  0  0  0  0  0
   -1.7171    5.5053    0.0000 H   0  0  0  0  0  0  0  0  0  0  0  0
   -0.4713    6.2990    0.0000 H   0  0  0  0  0  0  0  0  0  0  0  0
   -2.9331    1.8395    0.0000 H   0  0  0  0  0  0  0  0  0  0  0  0
   -2.3196    6.8609    0.0000 H   0  0  0  0  0  0  0  0  0  0  0  0
   -0.6855    5.1088    0.0000 H   0  0  0  0  0  0  0  0  0  0  0  0
   -3.6479    7.0713    0.0000 H   0  0  0  0  0  0  0  0  0  0  0  0
   -6.6314    6.7577    0.0000 H   0  0  0  0  0  0  0  0  0  0  0  0
   -6.5223    4.2585    0.0000 H   0  0  0  0  0  0  0  0  0  0  0  0
   -5.7389    4.5699    0.0000 H   0  0  0  0  0  0  0  0  0  0  0  0
   -3.8626    2.2939    0.0000 H   0  0  0  0  0  0  0  0  0  0  0  0
   -6.8264    3.8211    0.0000 H   0  0  0  0  0  0  0  0  0  0  0  0
   -4.9217    1.5106    0.0000 H   0  0  0  0  0  0  0  0  0  0  0  0
   -7.8985    3.0560    0.0000 H   0  0  0  0  0  0  0  0  0  0  0  0
   -6.1352    0.6289    0.0000 H   0  0  0  0  0  0  0  0  0  0  0  0
  -10.8142    0.6892    0.0000 H   0  0  0  0  0  0  0  0  0  0  0  0
   -9.7575    3.0627    0.0000 H   0  0  0  0  0  0  0  0  0  0  0  0
   -7.9168   -2.0228    0.0000 H   0  0  0  0  0  0  0  0  0  0  0  0
   -9.5654   -0.6878    0.0000 H   0  0  0  0  0  0  0  0  0  0  0  0
   -6.5818   -0.3742    0.0000 H   0  0  0  0  0  0  0  0  0  0  0  0
   -1.5884    1.9054    0.0000 H   0  0  0  0  0  0  0  0  0  0  0  0
    2.8706    2.3740    0.0000 H   0  0  0  0  0  0  0  0  0  0  0  0
    3.0227    4.8233    0.0000 H   0  0  0  0  0  0  0  0  0  0  0  0
    3.3173    3.0634    0.0000 H   0  0  0  0  0  0  0  0  0  0  0  0
    3.3615    1.5898    0.0000 H   0  0  0  0  0  0  0  0  0  0  0  0
    3.0038   -0.0933    0.0000 H   0  0  0  0  0  0  0  0  0  0  0  0
    2.7707   -2.3105    0.0000 H   0  0  0  0  0  0  0  0  0  0  0  0
    0.7836   -2.3626    0.0000 H   0  0  0  0  0  0  0  0  0  0  0  0
    3.0597   -0.4863    0.0000 H   0  0  0  0  0  0  0  0  0  0  0  0
   -1.9248    0.9068    0.0000 H   0  0  0  0  0  0  0  0  0  0  0  0
   -1.9102   -1.0105    0.0000 H   0  0  0  0  0  0  0  0  0  0  0  0
    1.5764   -2.2643    0.0000 H   0  0  0  0  0  0  0  0  0  0  0  0
   -2.5181   -2.1595    0.0000 H   0  0  0  0  0  0  0  0  0  0  0  0
   -3.3209   -5.9366    0.0000 H   0  0  0  0  0  0  0  0  0  0  0  0
    2.0112   -6.4971    0.0000 H   0  0  0  0  0  0  0  0  0  0  0  0
   -0.0391   -8.9680    0.0000 H   0  0  0  0  0  0  0  0  0  0  0  0
    1.7400   -7.8126    0.0000 H   0  0  0  0  0  0  0  0  0  0  0  0
   -1.1945   -7.1889    0.0000 H   0  0  0  0  0  0  0  0  0  0  0  0
    3.6657   -5.4661    0.0000 H   0  0  0  0  0  0  0  0  0  0  0  0
    3.2959   -2.9919    0.0000 H   0  0  0  0  0  0  0  0  0  0  0  0
  1  2  2  3
  2  3  1  0
  3  4  1  0
  4  5  1  0
  5  6  1  0
  6  7  1  0
  6  8  1  0
  8  9  1  0
  5 10  1  0
 10 11  1  0
 11 12  1  0
 12 13  1  0
 13 14  1  0
 14 15  1  0
 15 16  2  3
 16 17  1  0
 17 18  1  1
 17 19  1  0
 19 20  2  3
 17 21  1  0
 21 22  1  0
 22 23  1  0
 23 24  1  0
 24 25  2  3
 24 26  1  0
 15 27  1  0
 27 28  1  0
 28 29  1  0
 28 30  1  0
 30 31  1  0
 31 32  1  1
 31 33  1  0
 33 34  1  0
 34 35  1  0
 35 36  1  0
 36 37  1  0
 37 38  1  6
 37 39  1  0
 39 40  1  0
 40 41  1  0
 40 42  1  0
 42 43  2  3
 44 42  1  6
 11  3  1  0
 29 13  1  0
 34 31  1  0
 44 35  1  0
 33 27  1  0
 44 36  1  0
 44 37  1  0
  1 45  1  0
  1 46  1  0
  2 47  1  0
  3 48  1  6
  4 49  1  0
  4 50  1  0
  5 51  1  6
  6 52  1  1
  7 53  1  0
  7 54  1  0
  7 55  1  0
  8 56  1  0
  8 57  1  0
  9 58  1  0
  9 59  1  0
  9 60  1  0
 10 61  1  0
 10 62  1  0
 11 63  1  1
 12 64  1  0
 12 65  1  0
 13 66  1  1
 14 67  1  0
 14 68  1  0
 16 69  1  0
 18 70  1  0
 18 71  1  0
 19 72  1  0
 20 73  1  0
 20 74  1  0
 21 75  1  0
 21 76  1  0
 22 77  1  0
 22 78  1  0
 23 79  1  0
 23 80  1  0
 25 81  1  0
 25 82  1  0
 26 83  1  0
 26 84  1  0
 26 85  1  0
 27 86  1  1
 28 87  1  1
 29 88  1  0
 29 89  1  0
 30 90  1  0
 30 91  1  0
 32 92  1  0
 32 93  1  0
 32 94  1  0
 33 95  1  1
 34 96  1  6
 35 97  1  6
 36 98  1  6
 38 99  1  0
 40100  1  6
 41101  1  0
 41102  1  0
 41103  1  0
 43104  1  0
 43105  1  0
M  END
$$$$
