
     RDKit          2D

 44 46  0  0  0  0  0  0  0  0999 V2000
   -4.3470    4.9418    0.0000 C   0  0  0  0  0  0  0  0  0  0  0  0
   -4.6588    3.4746    0.0000 C   0  0  0  0  0  0  0  0  0  0  0  0
   -4.9707    2.0074    0.0000 O   0  0  0  0  0  0  0  0  0  0  0  0
   -3.8560    1.0037    0.0000 C   0  0  0  0  0  0  0  0  0  0  0  0
   -2.7413    0.0000    0.0000 C   0  0  0  0  0  0  0  0  0  0  0  0
   -1.8596    1.2135    0.0000 O   0  0  0  0  0  0  0  0  0  0  0  0
   -0.4330    0.7500    0.0000 C   0  0  0  0  0  0  0  0  0  0  0  0
    0.8660    0.0000    0.0000 C   0  0  0  0  0  0  0  0  0  0  0  0
   -0.4330   -0.7500    0.0000 C   0  0  0  0  0  0  0  0  0  0  0  0
    0.1771   -2.1203    0.0000 O   0  0  0  0  0  0  0  0  0  0  0  0
   -1.8596   -1.2135    0.0000 C   0  0  0  0  0  0  0  0  0  0  0  0
   -3.1586   -1.9635    0.0000 C   0  0  0  0  0  0  0  0  0  0  0  0
   -4.4577   -2.7135    0.0000 C   0  0  0  0  0  0  0  0  0  0  0  0
   -2.4086   -3.2626    0.0000 C   0  0  0  0  0  0  0  0  0  0  0  0
   -3.7077   -4.0126    0.0000 C   0  0  0  0  0  0  0  0  0  0  0  0
   -2.9577   -5.3116    0.0000 C   0  0  0  0  0  0  0  0  0  0  0  0
   -1.6586   -4.5616    0.0000 C   0  0  0  0  0  0  0  0  0  0  0  0
   -0.3596   -3.8116    0.0000 C   0  0  0  0  0  0  0  0  0  0  0  0
   -4.0351    6.4091    0.0000 H   0  0  0  0  0  0  0  0  0  0  0  0
   -2.8798    4.6300    0.0000 H   0  0  0  0  0  0  0  0  0  0  0  0
   -5.8142    5.2537    0.0000 H   0  0  0  0  0  0  0  0  0  0  0  0
   -3.1916    3.1627    0.0000 H   0  0  0  0  0  0  0  0  0  0  0  0
   -6.1261    3.7865    0.0000 H   0  0  0  0  0  0  0  0  0  0  0  0
   -4.8597   -0.1110    0.0000 H   0  0  0  0  0  0  0  0  0  0  0  0
   -2.8523    2.1184    0.0000 H   0  0  0  0  0  0  0  0  0  0  0  0
   -3.3943   -0.4572    0.0000 H   0  0  0  0  0  0  0  0  0  0  0  0
    0.1771    2.1203    0.0000 H   0  0  0  0  0  0  0  0  0  0  0  0
    1.8302    1.1491    0.0000 H   0  0  0  0  0  0  0  0  0  0  0  0
    1.8302   -1.1491    0.0000 H   0  0  0  0  0  0  0  0  0  0  0  0
    1.6689   -2.2771    0.0000 H   0  0  0  0  0  0  0  0  0  0  0  0
   -1.0870   -2.4993    0.0000 H   0  0  0  0  0  0  0  0  0  0  0  0
   -3.6384   -1.3269    0.0000 H   0  0  0  0  0  0  0  0  0  0  0  0
   -5.7567   -3.4635    0.0000 H   0  0  0  0  0  0  0  0  0  0  0  0
   -5.2077   -1.4145    0.0000 H   0  0  0  0  0  0  0  0  0  0  0  0
   -4.0443   -4.1554    0.0000 H   0  0  0  0  0  0  0  0  0  0  0  0
   -1.0279   -2.6765    0.0000 H   0  0  0  0  0  0  0  0  0  0  0  0
   -5.0067   -4.7626    0.0000 H   0  0  0  0  0  0  0  0  0  0  0  0
   -4.7497   -2.9336    0.0000 H   0  0  0  0  0  0  0  0  0  0  0  0
   -2.2077   -6.6106    0.0000 H   0  0  0  0  0  0  0  0  0  0  0  0
   -4.2567   -6.0616    0.0000 H   0  0  0  0  0  0  0  0  0  0  0  0
   -0.9086   -5.8606    0.0000 H   0  0  0  0  0  0  0  0  0  0  0  0
    0.9394   -3.0616    0.0000 H   0  0  0  0  0  0  0  0  0  0  0  0
    0.2265   -5.1924    0.0000 H   0  0  0  0  0  0  0  0  0  0  0  0
    0.5432   -5.0095    0.0000 H   0  0  0  0  0  0  0  0  0  0  0  0
  1  2  1  0
  2  3  1  0
  3  4  1  0
  4  5  1  0
  5  6  1  0
  6  7  1  0
  7  8  1  0
  8  9  1  0
  9 10  1  0
  9 11  1  0
 11 12  1  0
 12 13  1  0
 12 14  1  0
 14 15  1  0
 15 16  1  0
 16 17  1  0
 17 18  1  0
 11  5  1  0
 17 14  1  0
  9  7  1  0
  1 19  1  0
  1 20  1  0
  1 21  1  0
  2 22  1  0
  2 23  1  0
  4 24  1  0
  4 25  1  0
  5 26  1  0
  7 27  1  0
  8 28  1  0
  8 29  1  0
 10 30  1  0
 11 31  1  0
 12 32  1  0
 13 33  1  0
 13 34  1  0
 13 35  1  0
 14 36  1  0
 15 37  1  0
 15 38  1  0
 16 39  1  0
 16 40  1  0
 17 41  1  0
 18 42  1  0
 18 43  1  0
 18 44  1  0
M  END
$$$$
