
     RDKit          2D

 31 32  0  0  0  0  0  0  0  0999 V2000
   -2.7413    3.9271    0.0000 C   0  0  0  0  0  0  0  0  0  0  0  0
   -2.7413    2.4271    0.0000 C   0  0  0  0  0  0  0  0  0  0  0  0
   -1.3147    1.9635    0.0000 N   0  0  0  0  0  0  0  0  0  0  0  0
   -0.4330    0.7500    0.0000 C   0  0  0  0  0  0  0  0  0  0  0  0
    0.8660    0.0000    0.0000 C   0  0  0  0  0  0  0  0  0  0  0  0
   -0.4330   -0.7500    0.0000 N   0  0  0  0  0  0  0  0  0  0  0  0
   -1.3147   -1.9635    0.0000 C   0  0  0  0  0  0  0  0  0  0  0  0
   -2.7413   -2.4271    0.0000 C   0  0  0  0  0  0  0  0  0  0  0  0
   -4.1679   -1.9635    0.0000 C   0  0  0  0  0  0  0  0  0  0  0  0
   -5.0495   -0.7500    0.0000 C   0  0  0  0  0  0  0  0  0  0  0  0
   -6.4761   -0.2865    0.0000 C   0  0  0  0  0  0  0  0  0  0  0  0
   -7.5908   -1.2902    0.0000 O   0  0  0  0  0  0  0  0  0  0  0  0
   -5.0495    0.7500    0.0000 C   0  0  0  0  0  0  0  0  0  0  0  0
   -4.1679    1.9635    0.0000 N   0  0  0  0  0  0  0  0  0  0  0  0
   -1.2413    3.9271    0.0000 H   0  0  0  0  0  0  0  0  0  0  0  0
   -4.2413    3.9271    0.0000 H   0  0  0  0  0  0  0  0  0  0  0  0
   -2.7413    5.4271    0.0000 H   0  0  0  0  0  0  0  0  0  0  0  0
    0.5707    1.8647    0.0000 H   0  0  0  0  0  0  0  0  0  0  0  0
    1.8302    1.1491    0.0000 H   0  0  0  0  0  0  0  0  0  0  0  0
    1.8302   -1.1491    0.0000 H   0  0  0  0  0  0  0  0  0  0  0  0
    0.1119   -2.4271    0.0000 H   0  0  0  0  0  0  0  0  0  0  0  0
   -1.1318   -3.4523    0.0000 H   0  0  0  0  0  0  0  0  0  0  0  0
   -2.0141   -3.7390    0.0000 H   0  0  0  0  0  0  0  0  0  0  0  0
   -3.4685   -3.7390    0.0000 H   0  0  0  0  0  0  0  0  0  0  0  0
   -4.3507   -3.4523    0.0000 H   0  0  0  0  0  0  0  0  0  0  0  0
   -5.5273   -2.5975    0.0000 H   0  0  0  0  0  0  0  0  0  0  0  0
   -6.0726   -1.8470    0.0000 H   0  0  0  0  0  0  0  0  0  0  0  0
   -6.6419    0.4933    0.0000 H   0  0  0  0  0  0  0  0  0  0  0  0
   -5.8448    0.6944    0.0000 H   0  0  0  0  0  0  0  0  0  0  0  0
   -5.9312    1.9635    0.0000 H   0  0  0  0  0  0  0  0  0  0  0  0
   -5.0495    3.1771    0.0000 H   0  0  0  0  0  0  0  0  0  0  0  0
  1  2  1  0
  2  3  2  0
  3  4  1  0
  4  5  1  0
  5  6  1  0
  6  7  1  0
  7  8  1  0
  8  9  1  0
  9 10  1  0
 10 11  1  0
 11 12  2  0
 10 13  1  0
 13 14  1  0
 14  2  1  0
  6  4  1  0
  1 15  1  0
  1 16  1  0
  1 17  1  0
  4 18  1  0
  5 19  1  0
  5 20  1  0
  7 21  1  0
  7 22  1  0
  8 23  1  0
  8 24  1  0
  9 25  1  0
  9 26  1  0
 10 27  1  0
 11 28  1  0
 13 29  1  0
 13 30  1  0
 14 31  1  0
M  END
$$$$
