
     RDKit          2D

 42 46  0  0  0  0  0  0  0  0999 V2000
    1.8302    1.1491    0.0000 C   0  0  0  0  0  0  0  0  0  0  0  0
    0.8660    0.0000    0.0000 C   0  0  0  0  0  0  0  0  0  0  0  0
   -0.4330    0.7500    0.0000 C   0  0  0  0  0  0  0  0  0  0  0  0
   -1.7321    0.0000    0.0000 C   0  0  0  0  0  0  0  0  0  0  0  0
   -2.6962   -1.1491    0.0000 C   0  0  0  0  0  0  0  0  0  0  0  0
   -3.6604   -2.2981    0.0000 C   0  0  0  0  0  0  0  0  0  0  0  0
   -4.6246   -3.4472    0.0000 C   0  0  0  0  0  0  0  0  0  0  0  0
   -5.5888   -4.5963    0.0000 C   0  0  0  0  0  0  0  0  0  0  0  0
   -6.8878   -3.8463    0.0000 C   0  0  0  0  0  0  0  0  0  0  0  0
   -8.1869   -4.5963    0.0000 C   0  0  0  0  0  0  0  0  0  0  0  0
   -6.8878   -5.3463    0.0000 C   0  0  0  0  0  0  0  0  0  0  0  0
   -0.4330   -0.7500    0.0000 C   0  0  0  0  0  0  0  0  0  0  0  0
   -0.4330   -2.2500    0.0000 C   0  0  0  0  0  0  0  0  0  0  0  0
    1.0670   -2.2500    0.0000 N   0  0  0  0  0  0  0  0  0  0  0  0
   -0.4330   -3.7500    0.0000 C   0  0  0  0  0  0  0  0  0  0  0  0
   -0.9460   -5.1595    0.0000 C   0  0  0  0  0  0  0  0  0  0  0  0
   -1.9102   -4.0105    0.0000 C   0  0  0  0  0  0  0  0  0  0  0  0
    2.7944    2.2981    0.0000 H   0  0  0  0  0  0  0  0  0  0  0  0
    2.9793    0.1849    0.0000 H   0  0  0  0  0  0  0  0  0  0  0  0
    0.6811    2.1132    0.0000 H   0  0  0  0  0  0  0  0  0  0  0  0
    1.9631   -1.0230    0.0000 H   0  0  0  0  0  0  0  0  0  0  0  0
   -0.4330    2.2500    0.0000 H   0  0  0  0  0  0  0  0  0  0  0  0
   -2.6962    1.1491    0.0000 H   0  0  0  0  0  0  0  0  0  0  0  0
   -3.8453   -0.1849    0.0000 H   0  0  0  0  0  0  0  0  0  0  0  0
   -2.1526   -1.7321    0.0000 H   0  0  0  0  0  0  0  0  0  0  0  0
   -4.8095   -1.3340    0.0000 H   0  0  0  0  0  0  0  0  0  0  0  0
   -2.4024   -3.1151    0.0000 H   0  0  0  0  0  0  0  0  0  0  0  0
   -3.6016   -4.5443    0.0000 H   0  0  0  0  0  0  0  0  0  0  0  0
   -5.7737   -2.4830    0.0000 H   0  0  0  0  0  0  0  0  0  0  0  0
   -4.6246   -5.7453    0.0000 H   0  0  0  0  0  0  0  0  0  0  0  0
   -6.8878   -2.3463    0.0000 H   0  0  0  0  0  0  0  0  0  0  0  0
   -9.1510   -3.4472    0.0000 H   0  0  0  0  0  0  0  0  0  0  0  0
   -9.1510   -5.7453    0.0000 H   0  0  0  0  0  0  0  0  0  0  0  0
   -6.8878   -6.8463    0.0000 H   0  0  0  0  0  0  0  0  0  0  0  0
   -1.2302   -2.2500    0.0000 H   0  0  0  0  0  0  0  0  0  0  0  0
    1.9697   -3.4479    0.0000 H   0  0  0  0  0  0  0  0  0  0  0  0
    1.9697   -1.0521    0.0000 H   0  0  0  0  0  0  0  0  0  0  0  0
    1.0014   -4.1886    0.0000 H   0  0  0  0  0  0  0  0  0  0  0  0
    0.3530   -5.9095    0.0000 H   0  0  0  0  0  0  0  0  0  0  0  0
   -1.9102   -6.3086    0.0000 H   0  0  0  0  0  0  0  0  0  0  0  0
   -3.1082   -4.9132    0.0000 H   0  0  0  0  0  0  0  0  0  0  0  0
   -2.4233   -2.6009    0.0000 H   0  0  0  0  0  0  0  0  0  0  0  0
  1  2  1  0
  2  3  1  0
  3  4  1  0
  4  5  1  0
  5  6  1  0
  6  7  1  0
  7  8  1  0
  8  9  1  0
  9 10  1  0
 10 11  1  0
  4 12  1  0
 12 13  1  0
 13 14  1  0
 13 15  1  0
 15 16  1  0
 16 17  1  0
 12  2  1  0
 17 15  1  0
 12  3  1  0
 11  8  1  0
 11  9  1  0
  1 18  1  0
  1 19  1  0
  1 20  1  0
  2 21  1  0
  3 22  1  0
  4 23  1  0
  5 24  1  0
  5 25  1  0
  6 26  1  0
  6 27  1  0
  7 28  1  0
  7 29  1  0
  8 30  1  0
  9 31  1  0
 10 32  1  0
 10 33  1  0
 11 34  1  0
 13 35  1  0
 14 36  1  0
 14 37  1  0
 15 38  1  0
 16 39  1  0
 16 40  1  0
 17 41  1  0
 17 42  1  0
M  END
$$$$
