
     RDKit          3D

 12 15  0  0  0  0  0  0  0  0999 V2000
   26.9874  -19.6751   -5.7207 O   0  0  0  0  0  0  0  0  0  0  0  0
   26.1082  -19.6052   -6.8040 C   0  0  0  0  0  0  0  0  0  0  0  0
   25.9952  -20.9220   -7.5411 C   0  0  0  0  0  0  0  0  0  0  0  0
   26.8006  -19.8187   -8.1358 C   0  0  0  0  0  0  0  0  0  0  0  0
   27.2607  -21.2341   -8.2435 N   0  0  0  0  0  0  0  0  0  0  0  0
   27.1503  -22.1846   -9.3892 C   0  0  0  0  0  0  0  0  0  0  0  0
   26.2135  -22.0641  -10.6051 C   0  0  0  0  0  0  0  0  0  0  0  0
   26.4372  -23.4876   -8.9973 C   0  0  0  0  0  0  0  0  0  0  0  0
   25.3731  -20.8253  -10.8581 C   0  0  0  0  0  0  0  0  0  0  0  0
   25.4481  -23.3028  -10.1446 C   0  0  0  0  0  0  0  0  0  0  0  0
   26.2274  -19.5800  -10.6866 C   0  0  0  0  0  0  0  0  0  0  0  0
   26.0814  -19.0483   -9.2761 C   0  0  0  0  0  0  0  0  0  0  0  0
  2  1  1  0
  3  2  1  0
  4  2  1  0
  4  3  1  0
  5  3  1  0
  5  4  1  0
  6  5  1  0
  7  6  1  0
  8  6  1  0
  9  7  1  0
 10  7  1  0
 10  8  1  0
 11  9  1  0
 12  4  1  0
 12 11  1  0
M  END
$$$$
