
     RDKit          2D

 41 44  0  0  0  0  0  0  0  0999 V2000
    1.8302    1.1491    0.0000 O   0  0  0  0  0  0  0  0  0  0  0  0
    0.8660    0.0000    0.0000 C   0  0  0  0  0  0  0  0  0  0  0  0
   -0.4330    0.7500    0.0000 C   0  0  0  0  0  0  0  0  0  0  0  0
   -1.6058    1.6852    0.0000 C   0  0  0  0  0  0  0  0  0  0  0  0
   -3.0682    1.3515    0.0000 C   0  0  0  0  0  0  0  0  0  0  0  0
   -4.5640    1.2394    0.0000 C   0  0  0  0  0  0  0  0  0  0  0  0
   -3.7190   -0.0000    0.0000 C   0  0  0  0  0  0  0  0  0  0  0  0
   -3.0682   -1.3515    0.0000 C   0  0  0  0  0  0  0  0  0  0  0  0
   -4.5305   -1.6852    0.0000 C   0  0  0  0  0  0  0  0  0  0  0  0
   -5.4658   -0.5125    0.0000 C   0  0  0  0  0  0  0  0  0  0  0  0
   -6.9658   -0.5125    0.0000 C   0  0  0  0  0  0  0  0  0  0  0  0
   -7.9010   -1.6852    0.0000 C   0  0  0  0  0  0  0  0  0  0  0  0
   -7.5672   -3.1476    0.0000 C   0  0  0  0  0  0  0  0  0  0  0  0
   -6.2158   -3.7985    0.0000 C   0  0  0  0  0  0  0  0  0  0  0  0
   -4.8643   -3.1476    0.0000 C   0  0  0  0  0  0  0  0  0  0  0  0
   -1.6058   -1.6852    0.0000 C   0  0  0  0  0  0  0  0  0  0  0  0
   -0.4330   -0.7500    0.0000 C   0  0  0  0  0  0  0  0  0  0  0  0
    3.3074    0.8886    0.0000 H   0  0  0  0  0  0  0  0  0  0  0  0
    1.8302   -1.1491    0.0000 H   0  0  0  0  0  0  0  0  0  0  0  0
    0.4120    1.9894    0.0000 H   0  0  0  0  0  0  0  0  0  0  0  0
   -0.4330    2.6205    0.0000 H   0  0  0  0  0  0  0  0  0  0  0  0
   -2.2566    3.0367    0.0000 H   0  0  0  0  0  0  0  0  0  0  0  0
   -3.2917    2.8347    0.0000 H   0  0  0  0  0  0  0  0  0  0  0  0
   -4.9341    2.6930    0.0000 H   0  0  0  0  0  0  0  0  0  0  0  0
   -5.5037    0.9470    0.0000 H   0  0  0  0  0  0  0  0  0  0  0  0
   -4.6650   -0.2712    0.0000 H   0  0  0  0  0  0  0  0  0  0  0  0
   -3.0682   -2.8515    0.0000 H   0  0  0  0  0  0  0  0  0  0  0  0
   -5.3040    0.2681    0.0000 H   0  0  0  0  0  0  0  0  0  0  0  0
   -6.8127    0.9797    0.0000 H   0  0  0  0  0  0  0  0  0  0  0  0
   -8.2278    0.2982    0.0000 H   0  0  0  0  0  0  0  0  0  0  0  0
   -8.9722   -0.6352    0.0000 H   0  0  0  0  0  0  0  0  0  0  0  0
   -9.3217   -2.1665    0.0000 H   0  0  0  0  0  0  0  0  0  0  0  0
   -9.0560   -3.3305    0.0000 H   0  0  0  0  0  0  0  0  0  0  0  0
   -8.0768   -4.5584    0.0000 H   0  0  0  0  0  0  0  0  0  0  0  0
   -7.0011   -5.0765    0.0000 H   0  0  0  0  0  0  0  0  0  0  0  0
   -5.4305   -5.0765    0.0000 H   0  0  0  0  0  0  0  0  0  0  0  0
   -4.3548   -4.5584    0.0000 H   0  0  0  0  0  0  0  0  0  0  0  0
   -3.3755   -3.3305    0.0000 H   0  0  0  0  0  0  0  0  0  0  0  0
   -2.0870   -3.1059    0.0000 H   0  0  0  0  0  0  0  0  0  0  0  0
   -0.4330   -2.6205    0.0000 H   0  0  0  0  0  0  0  0  0  0  0  0
    0.4120   -1.9894    0.0000 H   0  0  0  0  0  0  0  0  0  0  0  0
  1  2  1  0
  2  3  1  0
  3  4  1  0
  4  5  1  0
  5  6  1  0
  6  7  1  0
  7  8  1  0
  8  9  1  0
  9 10  2  0
 10 11  1  0
 11 12  1  0
 12 13  1  0
 13 14  1  0
 14 15  1  0
  8 16  1  0
 16 17  1  0
 17  2  1  0
 17  3  1  0
  7  5  1  0
 15  9  1  0
  1 18  1  0
  2 19  1  0
  3 20  1  0
  4 21  1  0
  4 22  1  0
  5 23  1  0
  6 24  1  0
  6 25  1  0
  7 26  1  0
  8 27  1  0
 10 28  1  0
 11 29  1  0
 11 30  1  0
 12 31  1  0
 12 32  1  0
 13 33  1  0
 13 34  1  0
 14 35  1  0
 14 36  1  0
 15 37  1  0
 15 38  1  0
 16 39  1  0
 16 40  1  0
 17 41  1  0
M  END
$$$$
