
     RDKit          2D

 69 75  0  0  0  0  0  0  0  0999 V2000
    0.3170   -0.5490    0.0000 C   0  0  0  0  0  0  0  0  0  0  0  0
    0.3170   -2.0490    0.0000 C   0  0  0  0  0  0  0  0  0  0  0  0
    0.3170   -3.5490    0.0000 C   0  0  0  0  0  0  0  0  0  0  0  0
    0.3170   -5.0490    0.0000 C   0  0  0  0  0  0  0  0  0  0  0  0
    0.3170   -6.5490    0.0000 C   0  0  0  0  0  0  0  0  0  0  0  0
   -1.1830   -3.5490    0.0000 C   0  0  0  0  0  0  0  0  0  0  0  0
   -2.6830   -3.5490    0.0000 C   0  0  0  0  0  0  0  0  0  0  0  0
   -4.1830   -3.5490    0.0000 O   0  0  0  0  0  0  0  0  0  0  0  0
   -4.9330   -2.2500    0.0000 C   0  0  0  0  0  0  0  0  0  0  0  0
   -4.5448   -0.8011    0.0000 N   0  0  0  0  0  0  0  0  0  0  0  0
   -5.9937   -0.4129    0.0000 C   0  0  0  0  0  0  0  0  0  0  0  0
   -5.6054    1.0360    0.0000 N   0  0  0  0  0  0  0  0  0  0  0  0
   -7.4426   -0.0247    0.0000 C   0  0  0  0  0  0  0  0  0  0  0  0
   -8.6713    0.8357    0.0000 N   0  0  0  0  0  0  0  0  0  0  0  0
   -7.3118    1.4696    0.0000 C   0  0  0  0  0  0  0  0  0  0  0  0
   -7.7001    2.9185    0.0000 C   0  0  0  0  0  0  0  0  0  0  0  0
   -7.7786    4.4165    0.0000 N   0  0  0  0  0  0  0  0  0  0  0  0
   -9.2274    4.8047    0.0000 N   0  0  0  0  0  0  0  0  0  0  0  0
  -10.0444    3.5467    0.0000 C   0  0  0  0  0  0  0  0  0  0  0  0
   -9.1004    2.3810    0.0000 C   0  0  0  0  0  0  0  0  0  0  0  0
  -10.3584    1.5640    0.0000 C   0  0  0  0  0  0  0  0  0  0  0  0
   -9.7723    0.1833    0.0000 C   0  0  0  0  0  0  0  0  0  0  0  0
  -10.6751   -1.0147    0.0000 O   0  0  0  0  0  0  0  0  0  0  0  0
  -11.8200    1.2266    0.0000 C   0  0  0  0  0  0  0  0  0  0  0  0
  -11.3814    2.6610    0.0000 C   0  0  0  0  0  0  0  0  0  0  0  0
   -6.3819   -1.8618    0.0000 C   0  0  0  0  0  0  0  0  0  0  0  0
   -6.7701   -3.3107    0.0000 C   0  0  0  0  0  0  0  0  0  0  0  0
   -1.1830   -2.0490    0.0000 N   0  0  0  0  0  0  0  0  0  0  0  0
   -0.4330   -0.7500    0.0000 C   0  0  0  0  0  0  0  0  0  0  0  0
   -0.4330    0.7500    0.0000 N   0  0  0  0  0  2  0  0  0  0  0  0
   -1.9330    0.7500    0.0000 C   0  0  0  0  0  0  0  0  0  0  0  0
   -3.2321    0.0000    0.0000 N   0  0  0  0  0  2  0  0  0  0  0  0
   -1.9330   -0.7500    0.0000 C   0  0  0  0  0  0  0  0  0  0  0  0
    0.6799    0.9064    0.0000 H   0  0  0  0  0  0  0  0  0  0  0  0
    1.8170   -0.5490    0.0000 H   0  0  0  0  0  0  0  0  0  0  0  0
   -0.3868   -0.1747    0.0000 H   0  0  0  0  0  0  0  0  0  0  0  0
   -1.1384   -1.6861    0.0000 H   0  0  0  0  0  0  0  0  0  0  0  0
    1.8170   -2.0490    0.0000 H   0  0  0  0  0  0  0  0  0  0  0  0
    1.8170   -3.5490    0.0000 H   0  0  0  0  0  0  0  0  0  0  0  0
    1.8170   -5.0490    0.0000 H   0  0  0  0  0  0  0  0  0  0  0  0
   -1.1718   -5.2319    0.0000 H   0  0  0  0  0  0  0  0  0  0  0  0
    0.3170   -8.0490    0.0000 H   0  0  0  0  0  0  0  0  0  0  0  0
    1.8170   -6.5490    0.0000 H   0  0  0  0  0  0  0  0  0  0  0  0
   -1.1830   -6.5490    0.0000 H   0  0  0  0  0  0  0  0  0  0  0  0
   -1.3659   -5.0379    0.0000 H   0  0  0  0  0  0  0  0  0  0  0  0
   -2.6830   -5.0490    0.0000 H   0  0  0  0  0  0  0  0  0  0  0  0
   -2.6830   -2.0490    0.0000 H   0  0  0  0  0  0  0  0  0  0  0  0
   -4.1566    1.4242    0.0000 H   0  0  0  0  0  0  0  0  0  0  0  0
   -6.6661    2.0967    0.0000 H   0  0  0  0  0  0  0  0  0  0  0  0
   -8.2375   -1.2967    0.0000 H   0  0  0  0  0  0  0  0  0  0  0  0
  -10.1528    0.6010    0.0000 H   0  0  0  0  0  0  0  0  0  0  0  0
   -5.8936    1.9581    0.0000 H   0  0  0  0  0  0  0  0  0  0  0  0
   -6.2185    3.1532    0.0000 H   0  0  0  0  0  0  0  0  0  0  0  0
   -6.6128    5.3605    0.0000 H   0  0  0  0  0  0  0  0  0  0  0  0
   -9.7650    6.2051    0.0000 H   0  0  0  0  0  0  0  0  0  0  0  0
  -11.2101    4.4907    0.0000 H   0  0  0  0  0  0  0  0  0  0  0  0
  -11.3302    2.7742    0.0000 H   0  0  0  0  0  0  0  0  0  0  0  0
   -8.7631    0.9194    0.0000 H   0  0  0  0  0  0  0  0  0  0  0  0
   -8.2835    0.0005    0.0000 H   0  0  0  0  0  0  0  0  0  0  0  0
  -11.7415   -0.2714    0.0000 H   0  0  0  0  0  0  0  0  0  0  0  0
  -13.3088    1.4094    0.0000 H   0  0  0  0  0  0  0  0  0  0  0  0
  -12.7179    3.3420    0.0000 H   0  0  0  0  0  0  0  0  0  0  0  0
  -10.7954    4.0418    0.0000 H   0  0  0  0  0  0  0  0  0  0  0  0
   -7.8673   -1.6531    0.0000 H   0  0  0  0  0  0  0  0  0  0  0  0
   -7.1584   -4.7595    0.0000 H   0  0  0  0  0  0  0  0  0  0  0  0
   -8.2190   -2.9224    0.0000 H   0  0  0  0  0  0  0  0  0  0  0  0
   -5.3212   -3.6989    0.0000 H   0  0  0  0  0  0  0  0  0  0  0  0
    1.0159   -1.1382    0.0000 H   0  0  0  0  0  0  0  0  0  0  0  0
   -2.3212    2.1989    0.0000 H   0  0  0  0  0  0  0  0  0  0  0  0
  1  2  1  0
  2  3  1  0
  3  4  1  0
  4  5  1  0
  3  6  1  0
  6  7  1  0
  7  8  1  0
  8  9  1  0
  9 10  2  0
 10 11  1  0
 11 12  1  0
 11 13  1  0
 13 14  1  0
 14 15  1  0
 15 16  1  0
 16 17  1  0
 17 18  1  0
 18 19  1  0
 19 20  1  0
 20 21  1  0
 21 22  1  0
 22 23  2  0
 21 24  1  0
 24 25  1  0
 11 26  1  0
 26 27  1  0
  6 28  1  0
 28 29  1  0
 29 30  1  0
 30 31  1  0
 31 32  1  0
 32 33  1  0
 26  9  1  0
 33 28  1  0
 15 13  1  0
 20 16  1  0
 25 21  1  0
 33 29  1  0
 33 31  1  0
  1 34  1  0
  1 35  1  0
  1 36  1  0
  2 37  1  0
  2 38  1  0
  3 39  1  0
  4 40  1  0
  4 41  1  0
  5 42  1  0
  5 43  1  0
  5 44  1  0
  6 45  1  0
  7 46  1  0
  7 47  1  0
 12 48  1  0
 12 49  1  0
 13 50  1  0
 14 51  1  0
 15 52  1  0
 16 53  1  0
 17 54  1  0
 18 55  1  0
 19 56  1  0
 19 57  1  0
 20 58  1  0
 22 59  1  0
 24 60  1  0
 24 61  1  0
 25 62  1  0
 25 63  1  0
 26 64  1  0
 27 65  1  0
 27 66  1  0
 27 67  1  0
 29 68  1  0
 31 69  1  0
M  RAD  2  30   2  32   2
M  END
$$$$
