
     RDKit          2D

 49 52  0  0  0  0  0  0  0  0999 V2000
    4.8256   -8.8350    0.0000 C   0  0  0  0  0  0  0  0  0  0  0  0
    3.7650   -7.7743    0.0000 C   0  0  0  0  0  0  0  0  0  0  0  0
    2.7043   -6.7137    0.0000 C   0  0  0  0  0  0  0  0  0  0  0  0
    1.6437   -5.6530    0.0000 C   0  0  0  0  0  0  0  0  0  0  0  0
    0.4149   -6.5134    0.0000 C   0  0  0  0  0  0  0  0  0  0  0  0
    0.2842   -5.0191    0.0000 C   0  0  0  0  0  0  0  0  0  0  0  0
    0.6724   -3.5702    0.0000 C   0  0  0  0  0  0  0  0  0  0  0  0
    1.0607   -2.1213    0.0000 N   0  0  0  0  0  0  0  0  0  0  0  0
   -0.0000   -1.0607    0.0000 C   0  0  0  0  0  0  0  0  0  0  0  0
    1.0607    0.0000    0.0000 C   0  0  0  0  0  0  0  0  0  0  0  0
    0.0000    1.0607    0.0000 C   0  0  0  0  0  0  0  0  0  0  0  0
   -1.0607    2.1213    0.0000 C   0  0  0  0  0  0  0  0  0  0  0  0
   -2.1213    3.1820    0.0000 C   0  0  0  0  0  0  0  0  0  0  0  0
   -2.7552    4.5414    0.0000 O   0  0  0  0  0  0  0  0  0  0  0  0
   -1.2610    4.4107    0.0000 C   0  0  0  0  0  0  0  0  0  0  0  0
   -0.8727    5.8596    0.0000 O   0  0  0  0  0  0  0  0  0  0  0  0
   -1.0607    0.0000    0.0000 C   0  0  0  0  0  0  0  0  0  0  0  0
   -2.1213   -1.0607    0.0000 C   0  0  0  0  0  0  0  0  0  0  0  0
   -3.4808   -1.6946    0.0000 C   0  0  0  0  0  0  0  0  0  0  0  0
   -3.3500   -0.2003    0.0000 C   0  0  0  0  0  0  0  0  0  0  0  0
    5.8863   -9.8957    0.0000 H   0  0  0  0  0  0  0  0  0  0  0  0
    3.7650   -9.8957    0.0000 H   0  0  0  0  0  0  0  0  0  0  0  0
    5.8863   -7.7743    0.0000 H   0  0  0  0  0  0  0  0  0  0  0  0
    2.7043   -8.8350    0.0000 H   0  0  0  0  0  0  0  0  0  0  0  0
    4.8256   -6.7137    0.0000 H   0  0  0  0  0  0  0  0  0  0  0  0
    3.7650   -5.6530    0.0000 H   0  0  0  0  0  0  0  0  0  0  0  0
    1.8732   -7.7775    0.0000 H   0  0  0  0  0  0  0  0  0  0  0  0
    2.5470   -4.6498    0.0000 H   0  0  0  0  0  0  0  0  0  0  0  0
   -1.0340   -6.9016    0.0000 H   0  0  0  0  0  0  0  0  0  0  0  0
    0.8321   -7.7973    0.0000 H   0  0  0  0  0  0  0  0  0  0  0  0
   -1.2101   -4.8884    0.0000 H   0  0  0  0  0  0  0  0  0  0  0  0
   -0.7765   -3.1820    0.0000 H   0  0  0  0  0  0  0  0  0  0  0  0
    2.0093   -3.7581    0.0000 H   0  0  0  0  0  0  0  0  0  0  0  0
    2.5461   -1.9126    0.0000 H   0  0  0  0  0  0  0  0  0  0  0  0
   -0.6732   -1.9224    0.0000 H   0  0  0  0  0  0  0  0  0  0  0  0
    2.1213    1.0607    0.0000 H   0  0  0  0  0  0  0  0  0  0  0  0
    2.2427   -0.9235    0.0000 H   0  0  0  0  0  0  0  0  0  0  0  0
    1.0607    2.1213    0.0000 H   0  0  0  0  0  0  0  0  0  0  0  0
    0.0032    2.9524    0.0000 H   0  0  0  0  0  0  0  0  0  0  0  0
   -1.9043    1.6145    0.0000 H   0  0  0  0  0  0  0  0  0  0  0  0
   -3.3500    2.3216    0.0000 H   0  0  0  0  0  0  0  0  0  0  0  0
    0.0230    3.9936    0.0000 H   0  0  0  0  0  0  0  0  0  0  0  0
    0.5762    6.2478    0.0000 H   0  0  0  0  0  0  0  0  0  0  0  0
   -1.7566    0.6959    0.0000 H   0  0  0  0  0  0  0  0  0  0  0  0
   -1.6080   -2.0262    0.0000 H   0  0  0  0  0  0  0  0  0  0  0  0
   -3.0926   -3.1435    0.0000 H   0  0  0  0  0  0  0  0  0  0  0  0
   -4.9751   -1.8253    0.0000 H   0  0  0  0  0  0  0  0  0  0  0  0
   -4.7989    0.1879    0.0000 H   0  0  0  0  0  0  0  0  0  0  0  0
   -3.0639    1.2722    0.0000 H   0  0  0  0  0  0  0  0  0  0  0  0
  1  2  1  0
  2  3  1  0
  3  4  1  0
  4  5  1  0
  5  6  1  0
  6  7  1  0
  7  8  1  0
  8  9  1  0
  9 10  1  0
 10 11  1  0
 11 12  1  0
 12 13  1  0
 13 14  1  0
 14 15  1  0
 15 16  1  0
 11 17  1  0
 17 18  1  0
 18 19  1  0
 19 20  1  0
  6  4  1  0
 17  9  1  0
 20 18  1  0
 15 13  1  0
  1 21  1  0
  1 22  1  0
  1 23  1  0
  2 24  1  0
  2 25  1  0
  3 26  1  0
  3 27  1  0
  4 28  1  1
  5 29  1  0
  5 30  1  0
  6 31  1  1
  7 32  1  0
  7 33  1  0
  8 34  1  0
  9 35  1  6
 10 36  1  0
 10 37  1  0
 11 38  1  1
 12 39  1  0
 12 40  1  0
 13 41  1  1
 15 42  1  6
 16 43  1  0
 17 44  1  6
 18 45  1  0
 19 46  1  0
 19 47  1  0
 20 48  1  0
 20 49  1  0
M  END
$$$$
