
     RDKit          2D

 60 67  0  0  0  0  0  0  0  0999 V2000
   -0.6968    8.6659    0.0000 C   0  0  0  0  0  0  0  0  0  0  0  0
   -0.7977    7.1692    0.0000 C   0  0  0  0  0  0  0  0  0  0  0  0
   -2.2755    7.4260    0.0000 C   0  0  0  0  0  0  0  0  0  0  0  0
   -2.9764    6.0999    0.0000 C   0  0  0  0  0  0  0  0  0  0  0  0
   -1.9318    5.0235    0.0000 C   0  0  0  0  0  0  0  0  0  0  0  0
   -1.1337    3.7534    0.0000 C   0  0  0  0  0  0  0  0  0  0  0  0
   -2.4038    2.9553    0.0000 C   0  0  0  0  0  0  0  0  0  0  0  0
   -1.6058    1.6852    0.0000 C   0  0  0  0  0  0  0  0  0  0  0  0
   -0.3357    2.4833    0.0000 C   0  0  0  0  0  0  0  0  0  0  0  0
    0.9344    3.2813    0.0000 O   0  0  0  0  0  0  0  0  0  0  0  0
   -0.4330    0.7500    0.0000 C   0  0  0  0  0  0  0  0  0  0  0  0
    0.8660    0.0000    0.0000 O   0  0  0  0  0  0  0  0  0  0  0  0
   -0.4330   -0.7500    0.0000 C   0  0  0  0  0  0  0  0  0  0  0  0
    0.4120   -1.9894    0.0000 O   0  0  0  0  0  0  0  0  0  0  0  0
   -1.6058   -1.6852    0.0000 Si  0  0  0  0  0  4  0  0  0  0  0  0
   -3.0682   -1.3515    0.0000 C   0  0  0  0  0  0  0  0  0  0  0  0
   -3.7190    0.0000    0.0000 C   0  0  0  0  0  0  0  0  0  0  0  0
   -5.0704    0.6508    0.0000 C   0  0  0  0  0  0  0  0  0  0  0  0
   -6.4219    1.3017    0.0000 C   0  0  0  0  0  0  0  0  0  0  0  0
   -7.7733    1.9525    0.0000 C   0  0  0  0  0  0  0  0  0  0  0  0
   -7.1225    3.3039    0.0000 C   0  0  0  0  0  0  0  0  0  0  0  0
   -6.4717    4.6554    0.0000 C   0  0  0  0  0  0  0  0  0  0  0  0
   -5.7711    2.6531    0.0000 N   0  0  0  0  0  0  0  0  0  0  0  0
   -4.4196    2.0023    0.0000 C   0  0  0  0  0  0  0  0  0  0  0  0
   -3.1802    2.8473    0.0000 C   0  0  0  0  0  0  0  0  0  0  0  0
   -3.0682    1.3515    0.0000 C   0  0  0  0  0  0  0  0  0  0  0  0
   -0.5852    5.6844    0.0000 C   0  0  0  0  0  0  0  0  0  0  0  0
   -0.5959   10.1625    0.0000 H   0  0  0  0  0  0  0  0  0  0  0  0
    0.7998    8.5649    0.0000 H   0  0  0  0  0  0  0  0  0  0  0  0
   -1.4797    8.8160    0.0000 H   0  0  0  0  0  0  0  0  0  0  0  0
    0.7013    7.2253    0.0000 H   0  0  0  0  0  0  0  0  0  0  0  0
   -3.6677    7.9845    0.0000 H   0  0  0  0  0  0  0  0  0  0  0  0
   -2.1528    8.2137    0.0000 H   0  0  0  0  0  0  0  0  0  0  0  0
   -4.0709    5.0742    0.0000 H   0  0  0  0  0  0  0  0  0  0  0  0
   -4.2221    6.9355    0.0000 H   0  0  0  0  0  0  0  0  0  0  0  0
   -3.3006    4.4100    0.0000 H   0  0  0  0  0  0  0  0  0  0  0  0
    0.2242    4.3906    0.0000 H   0  0  0  0  0  0  0  0  0  0  0  0
   -3.8293    2.4883    0.0000 H   0  0  0  0  0  0  0  0  0  0  0  0
   -3.2019    4.2254    0.0000 H   0  0  0  0  0  0  0  0  0  0  0  0
    0.6112    1.3199    0.0000 H   0  0  0  0  0  0  0  0  0  0  0  0
    2.2606    2.5804    0.0000 H   0  0  0  0  0  0  0  0  0  0  0  0
    0.5567    1.8771    0.0000 H   0  0  0  0  0  0  0  0  0  0  0  0
   -0.0693   -3.4101    0.0000 H   0  0  0  0  0  0  0  0  0  0  0  0
   -0.5558   -2.7564    0.0000 H   0  0  0  0  0  0  0  0  0  0  0  0
   -2.0870   -3.1059    0.0000 H   0  0  0  0  0  0  0  0  0  0  0  0
   -3.2510   -2.8403    0.0000 H   0  0  0  0  0  0  0  0  0  0  0  0
   -4.4790   -1.8610    0.0000 H   0  0  0  0  0  0  0  0  0  0  0  0
   -4.9010   -0.9235    0.0000 H   0  0  0  0  0  0  0  0  0  0  0  0
   -5.7213   -0.7006    0.0000 H   0  0  0  0  0  0  0  0  0  0  0  0
   -7.0727   -0.0498    0.0000 H   0  0  0  0  0  0  0  0  0  0  0  0
   -9.1248    2.6033    0.0000 H   0  0  0  0  0  0  0  0  0  0  0  0
   -8.4242    0.6010    0.0000 H   0  0  0  0  0  0  0  0  0  0  0  0
   -8.4740    3.9548    0.0000 H   0  0  0  0  0  0  0  0  0  0  0  0
   -5.8209    6.0068    0.0000 H   0  0  0  0  0  0  0  0  0  0  0  0
   -7.8231    5.3062    0.0000 H   0  0  0  0  0  0  0  0  0  0  0  0
   -5.1202    4.0046    0.0000 H   0  0  0  0  0  0  0  0  0  0  0  0
   -4.2463    3.9025    0.0000 H   0  0  0  0  0  0  0  0  0  0  0  0
   -1.8594    3.5581    0.0000 H   0  0  0  0  0  0  0  0  0  0  0  0
    0.8693    6.0509    0.0000 H   0  0  0  0  0  0  0  0  0  0  0  0
    0.0991    4.3496    0.0000 H   0  0  0  0  0  0  0  0  0  0  0  0
  1  2  1  0
  2  3  1  0
  3  4  1  0
  4  5  1  0
  5  6  1  0
  6  7  1  0
  7  8  1  0
  8  9  1  0
  9 10  1  0
  8 11  1  0
 11 12  1  0
 12 13  1  0
 13 14  1  0
 13 15  1  0
 15 16  1  0
 16 17  1  0
 17 18  1  0
 18 19  1  0
 19 20  1  0
 20 21  1  0
 21 22  1  0
 21 23  1  0
 23 24  1  0
 24 25  1  0
 25 26  1  0
  5 27  1  0
 27  2  1  0
  9  6  1  0
 13 11  1  0
 26 17  1  0
 26  8  1  0
 24 18  1  0
 23 19  1  0
 26 24  1  0
  1 28  1  0
  1 29  1  0
  1 30  1  0
  2 31  1  0
  3 32  1  0
  3 33  1  0
  4 34  1  0
  4 35  1  0
  5 36  1  0
  6 37  1  0
  7 38  1  0
  7 39  1  0
  9 40  1  0
 10 41  1  0
 11 42  1  0
 14 43  1  0
 15 44  1  0
 15 45  1  0
 16 46  1  0
 16 47  1  0
 17 48  1  0
 18 49  1  0
 19 50  1  0
 20 51  1  0
 20 52  1  0
 21 53  1  0
 22 54  1  0
 22 55  1  0
 22 56  1  0
 25 57  1  0
 25 58  1  0
 27 59  1  0
 27 60  1  0
M  END
$$$$
