
     RDKit          2D

 21 22  0  0  0  0  0  0  0  0999 V2000
    0.3434    3.6478    0.0000 F   0  0  0  0  0  0  0  0  0  0  0  0
   -0.0448    2.1989    0.0000 C   0  0  0  0  0  0  0  0  0  0  0  0
   -0.4330    0.7500    0.0000 C   0  0  0  0  0  0  0  0  0  0  0  0
    0.8660    0.0000    0.0000 C   0  0  0  0  0  0  0  0  0  0  0  0
   -0.4330   -0.7500    0.0000 C   0  0  0  0  0  0  0  0  0  0  0  0
   -1.9330   -0.7500    0.0000 C   0  0  0  0  0  0  0  0  0  0  0  0
   -3.4330   -0.7500    0.0000 C   0  0  0  0  0  0  0  0  0  0  0  0
   -3.4330   -2.2500    0.0000 F   0  0  0  0  0  0  0  0  0  0  0  0
   -4.9330   -0.7500    0.0000 C   0  0  0  0  0  0  0  0  0  0  0  0
   -6.4330   -0.7500    0.0000 F   0  0  0  0  0  0  0  0  0  0  0  0
   -4.9330    0.7500    0.0000 F   0  0  0  0  0  0  0  0  0  0  0  0
   -1.9330    0.7500    0.0000 N   0  0  0  0  0  0  0  0  0  0  0  0
    1.4406    1.9902    0.0000 H   0  0  0  0  0  0  0  0  0  0  0  0
   -1.4937    2.5871    0.0000 H   0  0  0  0  0  0  0  0  0  0  0  0
    1.9631    1.0230    0.0000 H   0  0  0  0  0  0  0  0  0  0  0  0
    1.8302   -1.1491    0.0000 H   0  0  0  0  0  0  0  0  0  0  0  0
   -0.0448   -2.1989    0.0000 H   0  0  0  0  0  0  0  0  0  0  0  0
   -1.9330   -2.2500    0.0000 H   0  0  0  0  0  0  0  0  0  0  0  0
   -3.4330    0.7500    0.0000 H   0  0  0  0  0  0  0  0  0  0  0  0
   -4.9330   -2.2500    0.0000 H   0  0  0  0  0  0  0  0  0  0  0  0
   -2.9937    1.8107    0.0000 H   0  0  0  0  0  0  0  0  0  0  0  0
  1  2  1  0
  3  2  1  6
  3  4  1  0
  4  5  1  0
  5  6  1  0
  6  7  1  0
  7  8  1  0
  7  9  1  0
  9 10  1  0
  9 11  1  0
  6 12  1  0
  5  3  1  0
 12  3  1  0
  2 13  1  0
  2 14  1  0
  4 15  1  0
  4 16  1  0
  5 17  1  1
  6 18  1  1
  7 19  1  1
  9 20  1  0
 12 21  1  0
M  END
$$$$
