
     RDKit          2D

 56 58  0  0  0  0  0  0  0  0999 V2000
   -2.6412   10.6119    0.0000 O   0  0  0  0  0  0  0  0  0  0  0  0
   -1.3422    9.8619    0.0000 C   0  0  0  0  0  0  0  0  0  0  0  0
   -0.0431    9.1119    0.0000 C   0  0  0  0  0  0  0  0  0  0  0  0
    1.2559    8.3619    0.0000 C   0  0  0  0  0  0  0  0  0  0  0  0
    2.5550    7.6119    0.0000 C   0  0  0  0  0  0  0  0  0  0  0  0
    3.8540    6.8619    0.0000 C   0  0  0  0  0  0  0  0  0  0  0  0
    3.8540    5.3619    0.0000 C   0  0  0  0  0  0  0  0  0  0  0  0
    3.8540    3.8619    0.0000 C   0  0  0  0  0  0  0  0  0  0  0  0
    2.5550    3.1119    0.0000 C   0  0  0  0  0  0  0  0  0  0  0  0
    1.5908    4.2610    0.0000 C   0  0  0  0  0  0  0  0  0  0  0  0
    1.0777    2.8515    0.0000 C   0  0  0  0  0  0  0  0  0  0  0  0
    1.0777    1.3515    0.0000 C   0  0  0  0  0  0  0  0  0  0  0  0
    1.7286    0.0000    0.0000 C   0  0  0  0  0  0  0  0  0  0  0  0
    1.0777   -1.3515    0.0000 C   0  0  0  0  0  0  0  0  0  0  0  0
   -0.3846   -1.6852    0.0000 C   0  0  0  0  0  0  0  0  0  0  0  0
   -1.5574   -0.7500    0.0000 C   0  0  0  0  0  0  0  0  0  0  0  0
   -2.2082   -2.1015    0.0000 C   0  0  0  0  0  0  0  0  0  0  0  0
   -2.8590   -3.4529    0.0000 C   0  0  0  0  0  0  0  0  0  0  0  0
   -3.9328   -4.5003    0.0000 C   0  0  0  0  0  0  0  0  0  0  0  0
   -4.3030   -3.0466    0.0000 C   0  0  0  0  0  0  0  0  0  0  0  0
   -1.5574    0.7500    0.0000 C   0  0  0  0  0  0  0  0  0  0  0  0
   -0.3846    1.6852    0.0000 C   0  0  0  0  0  0  0  0  0  0  0  0
   -3.9402    9.8619    0.0000 H   0  0  0  0  0  0  0  0  0  0  0  0
   -0.5922   11.1610    0.0000 H   0  0  0  0  0  0  0  0  0  0  0  0
   -2.0922    8.5629    0.0000 H   0  0  0  0  0  0  0  0  0  0  0  0
    0.7069   10.4110    0.0000 H   0  0  0  0  0  0  0  0  0  0  0  0
   -0.7931    7.8129    0.0000 H   0  0  0  0  0  0  0  0  0  0  0  0
    0.5059    7.0629    0.0000 H   0  0  0  0  0  0  0  0  0  0  0  0
    2.0059    9.6610    0.0000 H   0  0  0  0  0  0  0  0  0  0  0  0
    3.3050    8.9110    0.0000 H   0  0  0  0  0  0  0  0  0  0  0  0
    1.8050    6.3129    0.0000 H   0  0  0  0  0  0  0  0  0  0  0  0
    5.1530    7.6119    0.0000 H   0  0  0  0  0  0  0  0  0  0  0  0
    5.1530    3.1119    0.0000 H   0  0  0  0  0  0  0  0  0  0  0  0
    3.3099    1.9928    0.0000 H   0  0  0  0  0  0  0  0  0  0  0  0
    0.2917    5.0110    0.0000 H   0  0  0  0  0  0  0  0  0  0  0  0
    2.5550    5.4101    0.0000 H   0  0  0  0  0  0  0  0  0  0  0  0
   -0.3567    3.2900    0.0000 H   0  0  0  0  0  0  0  0  0  0  0  0
    2.3939    1.6519    0.0000 H   0  0  0  0  0  0  0  0  0  0  0  0
    3.0928    0.6237    0.0000 H   0  0  0  0  0  0  0  0  0  0  0  0
    3.0066   -0.7853    0.0000 H   0  0  0  0  0  0  0  0  0  0  0  0
    2.4885   -1.8610    0.0000 H   0  0  0  0  0  0  0  0  0  0  0  0
    1.2606   -2.8403    0.0000 H   0  0  0  0  0  0  0  0  0  0  0  0
    0.0966   -3.1059    0.0000 H   0  0  0  0  0  0  0  0  0  0  0  0
   -0.9427   -2.2545    0.0000 H   0  0  0  0  0  0  0  0  0  0  0  0
   -2.7661   -0.6260    0.0000 H   0  0  0  0  0  0  0  0  0  0  0  0
   -3.2305   -1.4448    0.0000 H   0  0  0  0  0  0  0  0  0  0  0  0
   -1.5375   -2.5323    0.0000 H   0  0  0  0  0  0  0  0  0  0  0  0
   -1.6411   -4.3285    0.0000 H   0  0  0  0  0  0  0  0  0  0  0  0
   -3.0879   -5.7396    0.0000 H   0  0  0  0  0  0  0  0  0  0  0  0
   -5.3001   -5.1172    0.0000 H   0  0  0  0  0  0  0  0  0  0  0  0
   -5.7988   -3.1587    0.0000 H   0  0  0  0  0  0  0  0  0  0  0  0
   -4.3367   -1.5470    0.0000 H   0  0  0  0  0  0  0  0  0  0  0  0
   -3.0496    0.5970    0.0000 H   0  0  0  0  0  0  0  0  0  0  0  0
   -2.3681    2.0120    0.0000 H   0  0  0  0  0  0  0  0  0  0  0  0
   -1.4346    2.7564    0.0000 H   0  0  0  0  0  0  0  0  0  0  0  0
    0.0966    3.1059    0.0000 H   0  0  0  0  0  0  0  0  0  0  0  0
  1  2  1  0
  2  3  1  0
  3  4  1  0
  4  5  1  0
  5  6  1  0
  6  7  2  0
  7  8  2  0
  8  9  1  0
  9 10  1  0
 10 11  1  0
 11 12  1  0
 12 13  1  0
 13 14  1  0
 14 15  1  0
 15 16  1  0
 16 17  1  0
 17 18  1  0
 18 19  1  0
 19 20  1  0
 16 21  1  0
 21 22  1  0
 11  9  1  0
 22 12  1  0
 20 18  1  0
  1 23  1  0
  2 24  1  0
  2 25  1  0
  3 26  1  0
  3 27  1  0
  4 28  1  0
  4 29  1  0
  5 30  1  0
  5 31  1  0
  6 32  1  0
  8 33  1  0
  9 34  1  0
 10 35  1  0
 10 36  1  0
 11 37  1  0
 12 38  1  0
 13 39  1  0
 13 40  1  0
 14 41  1  0
 14 42  1  0
 15 43  1  0
 15 44  1  0
 16 45  1  0
 17 46  1  0
 17 47  1  0
 18 48  1  0
 19 49  1  0
 19 50  1  0
 20 51  1  0
 20 52  1  0
 21 53  1  0
 21 54  1  0
 22 55  1  0
 22 56  1  0
M  END
$$$$
