
     RDKit          2D

108112  0  0  0  0  0  0  0  0999 V2000
  -11.8898    2.4145    0.0000 C   0  0  0  0  0  0  0  0  0  0  0  0
  -11.6293    0.9373    0.0000 C   0  0  0  0  0  0  0  0  0  0  0  0
  -12.7784   -0.0269    0.0000 O   0  0  0  0  0  0  0  0  0  0  0  0
  -10.2198    0.4242    0.0000 C   0  0  0  0  0  0  0  0  0  0  0  0
   -9.7067    1.8338    0.0000 N   0  0  0  0  0  0  0  0  0  0  0  0
   -8.8102   -0.0888    0.0000 C   0  0  0  0  0  0  0  0  0  0  0  0
   -7.4007   -0.6018    0.0000 O   0  0  0  0  0  0  0  0  0  0  0  0
   -7.1402   -2.0790    0.0000 C   0  0  0  0  0  0  0  0  0  0  0  0
   -6.8797   -3.5563    0.0000 C   0  0  0  0  0  0  0  0  0  0  0  0
   -8.3570   -3.8167    0.0000 C   0  0  0  0  0  0  0  0  0  0  0  0
   -8.6174   -2.3395    0.0000 C   0  0  0  0  0  0  0  0  0  0  0  0
   -9.8342   -4.0772    0.0000 C   0  0  0  0  0  0  0  0  0  0  0  0
  -10.7983   -2.9281    0.0000 C   0  0  0  0  0  0  0  0  0  0  0  0
  -12.2756   -3.1886    0.0000 C   0  0  0  0  0  0  0  0  0  0  0  0
  -13.7528   -3.4491    0.0000 C   0  0  0  0  0  0  0  0  0  0  0  0
  -12.5360   -1.7114    0.0000 O   0  0  0  0  0  0  0  0  0  0  0  0
  -12.0151   -4.6658    0.0000 C   0  0  0  0  0  0  0  0  0  0  0  0
  -11.7546   -6.1430    0.0000 C   0  0  0  0  0  0  0  0  0  0  0  0
  -11.4941   -7.6202    0.0000 C   0  0  0  0  0  0  0  0  0  0  0  0
  -13.2318   -6.4035    0.0000 C   0  0  0  0  0  0  0  0  0  0  0  0
   -5.4025   -3.2958    0.0000 C   0  0  0  0  0  0  0  0  0  0  0  0
   -4.2535   -2.3316    0.0000 N   0  0  0  0  0  0  0  0  0  0  0  0
   -2.7762   -2.0711    0.0000 C   0  0  0  0  0  0  0  0  0  0  0  0
   -1.2990   -1.8107    0.0000 C   0  0  0  0  0  0  0  0  0  0  0  0
   -1.8121   -0.4011    0.0000 C   0  0  0  0  0  0  0  0  0  0  0  0
   -0.8479    0.7479    0.0000 C   0  0  0  0  0  0  0  0  0  0  0  0
   -0.3349    2.1575    0.0000 C   0  0  0  0  0  0  0  0  0  0  0  0
    0.6293    0.4875    0.0000 N   0  0  0  0  0  0  0  0  0  0  0  0
    1.5935    1.6365    0.0000 C   0  0  0  0  0  0  0  0  0  0  0  0
    1.1424   -0.9221    0.0000 C   0  0  0  0  0  0  0  0  0  0  0  0
    2.1065   -2.0711    0.0000 C   0  0  0  0  0  0  0  0  0  0  0  0
    0.1782   -2.0711    0.0000 C   0  0  0  0  0  0  0  0  0  0  0  0
    1.5376   -2.7051    0.0000 C   0  0  0  0  0  0  0  0  0  0  0  0
    0.9037   -4.0645    0.0000 C   0  0  0  0  0  0  0  0  0  0  0  0
    0.2698   -5.4240    0.0000 C   0  0  0  0  0  0  0  0  0  0  0  0
    0.1390   -6.9183    0.0000 C   0  0  0  0  0  0  0  0  0  0  0  0
   -1.3552   -7.0490    0.0000 C   0  0  0  0  0  0  0  0  0  0  0  0
    1.4985   -6.2843    0.0000 C   0  0  0  0  0  0  0  0  0  0  0  0
    2.3589   -7.5131    0.0000 C   0  0  0  0  0  0  0  0  0  0  0  0
   -0.4558   -3.4306    0.0000 C   0  0  0  0  0  0  0  0  0  0  0  0
   -1.8152   -2.7967    0.0000 N   0  0  0  0  0  0  0  0  0  0  0  0
   -3.0439   -3.6570    0.0000 C   0  0  0  0  0  0  0  0  0  0  0  0
   -4.2727   -4.5174    0.0000 O   0  0  0  0  0  0  0  0  0  0  0  0
   -5.6630   -1.8186    0.0000 C   0  0  0  0  0  0  0  0  0  0  0  0
   -5.5323   -0.3243    0.0000 I   0  0  0  0  0  0  0  0  0  0  0  0
  -12.1502    3.8917    0.0000 H   0  0  0  0  0  0  0  0  0  0  0  0
  -13.3670    2.1540    0.0000 H   0  0  0  0  0  0  0  0  0  0  0  0
  -11.0427    2.6735    0.0000 H   0  0  0  0  0  0  0  0  0  0  0  0
  -10.5571   -1.0373    0.0000 H   0  0  0  0  0  0  0  0  0  0  0  0
  -10.1409    2.5023    0.0000 H   0  0  0  0  0  0  0  0  0  0  0  0
   -8.2723    2.2724    0.0000 H   0  0  0  0  0  0  0  0  0  0  0  0
   -9.4912   -1.4253    0.0000 H   0  0  0  0  0  0  0  0  0  0  0  0
   -8.1292    1.2477    0.0000 H   0  0  0  0  0  0  0  0  0  0  0  0
   -8.6366   -1.9743    0.0000 H   0  0  0  0  0  0  0  0  0  0  0  0
   -6.6193   -5.0335    0.0000 H   0  0  0  0  0  0  0  0  0  0  0  0
   -8.0965   -5.2939    0.0000 H   0  0  0  0  0  0  0  0  0  0  0  0
   -9.3901   -1.0538    0.0000 H   0  0  0  0  0  0  0  0  0  0  0  0
  -10.1138   -2.2348    0.0000 H   0  0  0  0  0  0  0  0  0  0  0  0
   -7.2471   -1.7293    0.0000 H   0  0  0  0  0  0  0  0  0  0  0  0
  -10.1716   -5.5388    0.0000 H   0  0  0  0  0  0  0  0  0  0  0  0
  -10.1173   -1.5916    0.0000 H   0  0  0  0  0  0  0  0  0  0  0  0
  -15.2300   -3.7096    0.0000 H   0  0  0  0  0  0  0  0  0  0  0  0
  -14.1914   -2.0146    0.0000 H   0  0  0  0  0  0  0  0  0  0  0  0
  -13.6743   -4.9470    0.0000 H   0  0  0  0  0  0  0  0  0  0  0  0
  -13.8725   -1.0304    0.0000 H   0  0  0  0  0  0  0  0  0  0  0  0
  -13.4495   -5.1044    0.0000 H   0  0  0  0  0  0  0  0  0  0  0  0
  -10.5187   -4.7705    0.0000 H   0  0  0  0  0  0  0  0  0  0  0  0
  -10.2567   -6.0646    0.0000 H   0  0  0  0  0  0  0  0  0  0  0  0
  -11.2337   -9.0975    0.0000 H   0  0  0  0  0  0  0  0  0  0  0  0
  -12.8644   -8.2304    0.0000 H   0  0  0  0  0  0  0  0  0  0  0  0
  -10.0169   -7.3598    0.0000 H   0  0  0  0  0  0  0  0  0  0  0  0
  -14.7090   -6.6640    0.0000 H   0  0  0  0  0  0  0  0  0  0  0  0
  -13.3365   -7.8998    0.0000 H   0  0  0  0  0  0  0  0  0  0  0  0
  -12.9714   -7.8807    0.0000 H   0  0  0  0  0  0  0  0  0  0  0  0
   -5.1164   -4.7682    0.0000 H   0  0  0  0  0  0  0  0  0  0  0  0
   -2.8810   -3.5675    0.0000 H   0  0  0  0  0  0  0  0  0  0  0  0
   -3.2148   -0.6367    0.0000 H   0  0  0  0  0  0  0  0  0  0  0  0
   -1.6620   -3.2661    0.0000 H   0  0  0  0  0  0  0  0  0  0  0  0
   -2.7762    0.7479    0.0000 H   0  0  0  0  0  0  0  0  0  0  0  0
   -3.1928   -0.9872    0.0000 H   0  0  0  0  0  0  0  0  0  0  0  0
   -2.1469    1.4979    0.0000 H   0  0  0  0  0  0  0  0  0  0  0  0
    0.1782    3.5670    0.0000 H   0  0  0  0  0  0  0  0  0  0  0  0
   -1.7444    2.6705    0.0000 H   0  0  0  0  0  0  0  0  0  0  0  0
    1.1569    2.0008    0.0000 H   0  0  0  0  0  0  0  0  0  0  0  0
    2.5577    2.7856    0.0000 H   0  0  0  0  0  0  0  0  0  0  0  0
    0.4444    2.6007    0.0000 H   0  0  0  0  0  0  0  0  0  0  0  0
    2.8515    0.8196    0.0000 H   0  0  0  0  0  0  0  0  0  0  0  0
    2.5231   -0.3360    0.0000 H   0  0  0  0  0  0  0  0  0  0  0  0
    3.2036   -3.0941    0.0000 H   0  0  0  0  0  0  0  0  0  0  0  0
    3.2556   -1.1070    0.0000 H   0  0  0  0  0  0  0  0  0  0  0  0
    1.2249   -3.2847    0.0000 H   0  0  0  0  0  0  0  0  0  0  0  0
    2.8097   -3.5000    0.0000 H   0  0  0  0  0  0  0  0  0  0  0  0
    2.4817   -1.5394    0.0000 H   0  0  0  0  0  0  0  0  0  0  0  0
    2.3303   -4.5280    0.0000 H   0  0  0  0  0  0  0  0  0  0  0  0
   -1.1791   -5.0358    0.0000 H   0  0  0  0  0  0  0  0  0  0  0  0
    0.3478   -8.4037    0.0000 H   0  0  0  0  0  0  0  0  0  0  0  0
   -2.8495   -7.1797    0.0000 H   0  0  0  0  0  0  0  0  0  0  0  0
   -1.2245   -8.5433    0.0000 H   0  0  0  0  0  0  0  0  0  0  0  0
   -1.8437   -5.6308    0.0000 H   0  0  0  0  0  0  0  0  0  0  0  0
    2.6805   -5.3609    0.0000 H   0  0  0  0  0  0  0  0  0  0  0  0
    3.2192   -8.7418    0.0000 H   0  0  0  0  0  0  0  0  0  0  0  0
    3.5876   -6.6527    0.0000 H   0  0  0  0  0  0  0  0  0  0  0  0
    1.2442   -8.5168    0.0000 H   0  0  0  0  0  0  0  0  0  0  0  0
   -1.3998   -4.5963    0.0000 H   0  0  0  0  0  0  0  0  0  0  0  0
   -1.9459   -1.3024    0.0000 H   0  0  0  0  0  0  0  0  0  0  0  0
   -4.1761   -2.6730    0.0000 H   0  0  0  0  0  0  0  0  0  0  0  0
   -2.1836   -4.8858    0.0000 H   0  0  0  0  0  0  0  0  0  0  0  0
   -4.1419   -6.0117    0.0000 H   0  0  0  0  0  0  0  0  0  0  0  0
  1  2  1  0
  2  3  2  0
  2  4  1  0
  4  5  1  0
  4  6  1  0
  6  7  1  0
  7  8  1  0
  8  9  1  0
  9 10  1  0
 10 11  1  0
 10 12  1  0
 12 13  2  3
 13 14  1  0
 14 15  1  0
 14 16  1  1
 14 17  1  0
 17 18  1  0
 18 19  1  0
 18 20  1  0
  9 21  1  0
 21 22  1  0
 22 23  1  0
 23 24  1  0
 24 25  1  0
 25 26  1  0
 26 27  1  0
 26 28  1  0
 28 29  1  0
 28 30  1  0
 30 31  1  0
 30 32  1  0
 32 33  1  6
 33 34  1  0
 34 35  1  0
 35 36  1  0
 36 37  1  0
 36 38  1  0
 38 39  1  0
 34 40  1  0
 40 41  1  0
 41 42  1  0
 42 43  1  0
 22 44  1  0
 44 45  1  6
 44  8  1  0
 44 21  1  0
 32 24  1  0
 38 35  1  0
 40 32  1  0
  1 46  1  0
  1 47  1  0
  1 48  1  0
  4 49  1  1
  5 50  1  0
  5 51  1  0
  6 52  1  0
  6 53  1  0
  8 54  1  1
  9 55  1  6
 10 56  1  1
 11 57  1  0
 11 58  1  0
 11 59  1  0
 12 60  1  0
 13 61  1  0
 15 62  1  0
 15 63  1  0
 15 64  1  0
 16 65  1  0
 17 66  1  0
 17 67  1  0
 18 68  1  0
 19 69  1  0
 19 70  1  0
 19 71  1  0
 20 72  1  0
 20 73  1  0
 20 74  1  0
 21 75  1  6
 23 76  1  0
 23 77  1  0
 24 78  1  6
 25 79  1  0
 25 80  1  0
 26 81  1  1
 27 82  1  0
 27 83  1  0
 27 84  1  0
 29 85  1  0
 29 86  1  0
 29 87  1  0
 30 88  1  6
 31 89  1  0
 31 90  1  0
 31 91  1  0
 33 92  1  0
 33 93  1  0
 34 94  1  1
 35 95  1  0
 36 96  1  6
 37 97  1  0
 37 98  1  0
 37 99  1  0
 38100  1  1
 39101  1  0
 39102  1  0
 39103  1  0
 40104  1  1
 41105  1  0
 42106  1  0
 42107  1  0
 43108  1  0
M  END
$$$$
