
     RDKit          2D

118123  0  0  0  0  0  0  0  0999 V2000
    5.4040    3.8413    0.0000 C   0  0  0  0  0  0  0  0  0  0  0  0
    6.6349    4.6986    0.0000 C   0  0  0  0  0  0  0  0  0  0  0  0
    6.5079    6.1932    0.0000 C   0  0  0  0  0  0  0  0  0  0  0  0
    6.3809    7.6878    0.0000 C   0  0  0  0  0  0  0  0  0  0  0  0
    6.2539    9.1825    0.0000 N   0  0  0  0  0  0  0  0  0  0  0  0
    7.3884   10.1637    0.0000 C   0  0  0  0  0  0  0  0  0  0  0  0
    8.7021   10.8877    0.0000 C   0  0  0  0  0  0  0  0  0  0  0  0
   10.0159   11.6116    0.0000 C   0  0  0  0  0  0  0  0  0  0  0  0
   11.3296   12.3355    0.0000 C   0  0  0  0  0  0  0  0  0  0  0  0
   10.7398   10.2979    0.0000 C   0  0  0  0  0  0  0  0  0  0  0  0
   11.4638    8.9841    0.0000 C   0  0  0  0  0  0  0  0  0  0  0  0
    6.8057   11.5459    0.0000 C   0  0  0  0  0  0  0  0  0  0  0  0
    5.3111   11.4189    0.0000 N   0  0  0  0  0  0  0  0  0  0  0  0
    4.9701    9.9582    0.0000 N   0  0  0  0  0  0  0  0  0  0  0  0
    3.5878    9.3756    0.0000 C   0  0  0  0  0  0  0  0  0  0  0  0
    3.0052   10.7578    0.0000 N   0  0  0  0  0  0  0  0  0  0  0  0
    2.2056    8.7929    0.0000 C   0  0  0  0  0  0  0  0  0  0  0  0
    0.8234    8.2103    0.0000 C   0  0  0  0  0  0  0  0  0  0  0  0
   -0.5588    7.6276    0.0000 C   0  0  0  0  0  0  0  0  0  0  0  0
   -1.9410    7.0450    0.0000 C   0  0  0  0  0  0  0  0  0  0  0  0
   -3.3232    6.4623    0.0000 C   0  0  0  0  0  0  0  0  0  0  0  0
   -4.7054    5.8797    0.0000 C   0  0  0  0  0  0  0  0  0  0  0  0
   -6.0877    5.2970    0.0000 C   0  0  0  0  0  0  0  0  0  0  0  0
   -7.4699    4.7143    0.0000 C   0  0  0  0  0  0  0  0  0  0  0  0
   -6.6703    6.6792    0.0000 C   0  0  0  0  0  0  0  0  0  0  0  0
   -7.2530    8.0614    0.0000 C   0  0  0  0  0  0  0  0  0  0  0  0
   -2.7406    5.0801    0.0000 C   0  0  0  0  0  0  0  0  0  0  0  0
   -2.6658    3.5820    0.0000 C   0  0  0  0  0  0  0  0  0  0  0  0
   -1.1774    3.3954    0.0000 C   0  0  0  0  0  0  0  0  0  0  0  0
   -1.1027    1.8973    0.0000 C   0  0  0  0  0  0  0  0  0  0  0  0
   -1.2520    0.4048    0.0000 C   0  0  0  0  0  0  0  0  0  0  0  0
   -1.6222   -1.0489    0.0000 C   0  0  0  0  0  0  0  0  0  0  0  0
   -0.1782   -0.6426    0.0000 C   0  0  0  0  0  0  0  0  0  0  0  0
    1.3101   -0.4561    0.0000 C   0  0  0  0  0  0  0  0  0  0  0  0
    2.0923    0.8239    0.0000 C   0  0  0  0  0  0  0  0  0  0  0  0
    3.1661   -0.2235    0.0000 C   0  0  0  0  0  0  0  0  0  0  0  0
    3.3523    1.6377    0.0000 C   0  0  0  0  0  0  0  0  0  0  0  0
    4.6124    2.4515    0.0000 C   0  0  0  0  0  0  0  0  0  0  0  0
    1.5793    2.2334    0.0000 C   0  0  0  0  0  0  0  0  0  0  0  0
    0.1574    2.7111    0.0000 C   0  0  0  0  0  0  0  0  0  0  0  0
    0.0080    1.2186    0.0000 C   0  0  0  0  0  0  0  0  0  0  0  0
   -4.0006    4.2663    0.0000 N   0  0  0  0  0  0  0  0  0  0  0  0
   -5.4987    4.1915    0.0000 C   0  0  0  0  0  0  0  0  0  0  0  0
   -6.9969    4.1167    0.0000 C   0  0  0  0  0  0  0  0  0  0  0  0
   -8.4950    4.0420    0.0000 C   0  0  0  0  0  0  0  0  0  0  0  0
    5.5310    2.3467    0.0000 H   0  0  0  0  0  0  0  0  0  0  0  0
    4.1340    4.6394    0.0000 H   0  0  0  0  0  0  0  0  0  0  0  0
    7.9928    4.0613    0.0000 H   0  0  0  0  0  0  0  0  0  0  0  0
    5.0133    6.0662    0.0000 H   0  0  0  0  0  0  0  0  0  0  0  0
    8.0025    6.3202    0.0000 H   0  0  0  0  0  0  0  0  0  0  0  0
    4.9129    7.3796    0.0000 H   0  0  0  0  0  0  0  0  0  0  0  0
    7.8755    7.8149    0.0000 H   0  0  0  0  0  0  0  0  0  0  0  0
    8.2457    8.9328    0.0000 H   0  0  0  0  0  0  0  0  0  0  0  0
    9.0319   10.0656    0.0000 H   0  0  0  0  0  0  0  0  0  0  0  0
    8.3724   11.7097    0.0000 H   0  0  0  0  0  0  0  0  0  0  0  0
    9.2919   12.9253    0.0000 H   0  0  0  0  0  0  0  0  0  0  0  0
   12.6434   13.0595    0.0000 H   0  0  0  0  0  0  0  0  0  0  0  0
   10.6057   13.6493    0.0000 H   0  0  0  0  0  0  0  0  0  0  0  0
   11.8485   11.6177    0.0000 H   0  0  0  0  0  0  0  0  0  0  0  0
   11.5619   10.6276    0.0000 H   0  0  0  0  0  0  0  0  0  0  0  0
   10.0220    9.7790    0.0000 H   0  0  0  0  0  0  0  0  0  0  0  0
   12.1877    7.6704    0.0000 H   0  0  0  0  0  0  0  0  0  0  0  0
   12.7775    9.7081    0.0000 H   0  0  0  0  0  0  0  0  0  0  0  0
   10.1500    8.2602    0.0000 H   0  0  0  0  0  0  0  0  0  0  0  0
    6.5232   13.0191    0.0000 H   0  0  0  0  0  0  0  0  0  0  0  0
    7.6158   11.9042    0.0000 H   0  0  0  0  0  0  0  0  0  0  0  0
    4.4755   12.6646    0.0000 H   0  0  0  0  0  0  0  0  0  0  0  0
    3.9977    7.9326    0.0000 H   0  0  0  0  0  0  0  0  0  0  0  0
    3.7584   12.0550    0.0000 H   0  0  0  0  0  0  0  0  0  0  0  0
    1.5507   11.1243    0.0000 H   0  0  0  0  0  0  0  0  0  0  0  0
    1.4588   10.0938    0.0000 H   0  0  0  0  0  0  0  0  0  0  0  0
    2.7883    7.4107    0.0000 H   0  0  0  0  0  0  0  0  0  0  0  0
    1.4061    6.8280    0.0000 H   0  0  0  0  0  0  0  0  0  0  0  0
    0.2408    9.5925    0.0000 H   0  0  0  0  0  0  0  0  0  0  0  0
    0.0239    6.2454    0.0000 H   0  0  0  0  0  0  0  0  0  0  0  0
   -1.1414    9.0098    0.0000 H   0  0  0  0  0  0  0  0  0  0  0  0
   -1.1942    5.7441    0.0000 H   0  0  0  0  0  0  0  0  0  0  0  0
   -2.5237    8.4272    0.0000 H   0  0  0  0  0  0  0  0  0  0  0  0
   -3.9059    7.8445    0.0000 H   0  0  0  0  0  0  0  0  0  0  0  0
   -5.1153    7.3226    0.0000 H   0  0  0  0  0  0  0  0  0  0  0  0
   -4.4746    4.3975    0.0000 H   0  0  0  0  0  0  0  0  0  0  0  0
   -5.8568    3.8149    0.0000 H   0  0  0  0  0  0  0  0  0  0  0  0
   -8.9520    4.4835    0.0000 H   0  0  0  0  0  0  0  0  0  0  0  0
   -7.4214    3.2151    0.0000 H   0  0  0  0  0  0  0  0  0  0  0  0
   -8.0525    6.0966    0.0000 H   0  0  0  0  0  0  0  0  0  0  0  0
   -8.1524    6.4483    0.0000 H   0  0  0  0  0  0  0  0  0  0  0  0
   -5.3694    7.4260    0.0000 H   0  0  0  0  0  0  0  0  0  0  0  0
   -7.8356    9.4436    0.0000 H   0  0  0  0  0  0  0  0  0  0  0  0
   -8.6352    7.4788    0.0000 H   0  0  0  0  0  0  0  0  0  0  0  0
   -5.8707    8.6441    0.0000 H   0  0  0  0  0  0  0  0  0  0  0  0
   -1.2782    5.4139    0.0000 H   0  0  0  0  0  0  0  0  0  0  0  0
   -3.2794    2.2132    0.0000 H   0  0  0  0  0  0  0  0  0  0  0  0
   -0.5639    4.7642    0.0000 H   0  0  0  0  0  0  0  0  0  0  0  0
   -2.5956    1.7516    0.0000 H   0  0  0  0  0  0  0  0  0  0  0  0
   -3.1180   -0.9368    0.0000 H   0  0  0  0  0  0  0  0  0  0  0  0
   -1.4728   -2.5414    0.0000 H   0  0  0  0  0  0  0  0  0  0  0  0
    0.1190   -2.1129    0.0000 H   0  0  0  0  0  0  0  0  0  0  0  0
    1.1608   -1.9486    0.0000 H   0  0  0  0  0  0  0  0  0  0  0  0
    2.6632   -1.1036    0.0000 H   0  0  0  0  0  0  0  0  0  0  0  0
    4.2399   -1.2709    0.0000 H   0  0  0  0  0  0  0  0  0  0  0  0
    4.3365    0.7146    0.0000 H   0  0  0  0  0  0  0  0  0  0  0  0
    2.2574   -1.4170    0.0000 H   0  0  0  0  0  0  0  0  0  0  0  0
    2.6982    2.9875    0.0000 H   0  0  0  0  0  0  0  0  0  0  0  0
    4.3137    0.4862    0.0000 H   0  0  0  0  0  0  0  0  0  0  0  0
    6.0319    2.9362    0.0000 H   0  0  0  0  0  0  0  0  0  0  0  0
    5.4262    1.1915    0.0000 H   0  0  0  0  0  0  0  0  0  0  0  0
    3.6510    3.6029    0.0000 H   0  0  0  0  0  0  0  0  0  0  0  0
    3.0338    2.5999    0.0000 H   0  0  0  0  0  0  0  0  0  0  0  0
    1.7286    3.7259    0.0000 H   0  0  0  0  0  0  0  0  0  0  0  0
    1.4964    1.4051    0.0000 H   0  0  0  0  0  0  0  0  0  0  0  0
    0.5210   -0.1910    0.0000 H   0  0  0  0  0  0  0  0  0  0  0  0
   -5.4240    2.6934    0.0000 H   0  0  0  0  0  0  0  0  0  0  0  0
   -5.9338    5.6270    0.0000 H   0  0  0  0  0  0  0  0  0  0  0  0
   -7.0717    5.6149    0.0000 H   0  0  0  0  0  0  0  0  0  0  0  0
   -6.7401    2.6389    0.0000 H   0  0  0  0  0  0  0  0  0  0  0  0
   -9.9932    3.9672    0.0000 H   0  0  0  0  0  0  0  0  0  0  0  0
   -8.9301    5.4775    0.0000 H   0  0  0  0  0  0  0  0  0  0  0  0
   -8.4202    2.5438    0.0000 H   0  0  0  0  0  0  0  0  0  0  0  0
  1  2  2  3
  2  3  1  0
  3  4  1  0
  4  5  1  0
  5  6  1  0
  6  7  1  0
  7  8  1  0
  8  9  1  0
  8 10  1  0
 10 11  1  0
  6 12  1  0
 12 13  1  0
 13 14  1  0
 14 15  1  0
 15 16  1  0
 15 17  1  0
 17 18  1  0
 18 19  1  0
 19 20  1  0
 20 21  1  0
 21 22  1  0
 22 23  1  0
 23 24  1  0
 23 25  1  0
 25 26  1  0
 21 27  1  0
 27 28  1  0
 28 29  1  0
 29 30  1  0
 30 31  1  0
 31 32  1  0
 32 33  1  0
 33 34  1  0
 34 35  1  0
 35 36  1  0
 35 37  1  0
 37 38  1  0
 35 39  1  0
 39 40  1  0
 40 41  1  0
 28 42  1  0
 42 43  1  0
 43 44  1  0
 44 45  1  0
 14  5  1  0
 42 27  1  0
 40 29  1  0
 40 30  1  0
 33 31  1  0
 41 31  1  0
  1 46  1  0
  1 47  1  0
  2 48  1  0
  3 49  1  0
  3 50  1  0
  4 51  1  0
  4 52  1  0
  6 53  1  0
  7 54  1  0
  7 55  1  0
  8 56  1  0
  9 57  1  0
  9 58  1  0
  9 59  1  0
 10 60  1  0
 10 61  1  0
 11 62  1  0
 11 63  1  0
 11 64  1  0
 12 65  1  0
 12 66  1  0
 13 67  1  0
 15 68  1  0
 16 69  1  0
 16 70  1  0
 17 71  1  0
 17 72  1  0
 18 73  1  0
 18 74  1  0
 19 75  1  0
 19 76  1  0
 20 77  1  0
 20 78  1  0
 21 79  1  0
 22 80  1  0
 22 81  1  0
 23 82  1  0
 24 83  1  0
 24 84  1  0
 24 85  1  0
 25 86  1  0
 25 87  1  0
 26 88  1  0
 26 89  1  0
 26 90  1  0
 27 91  1  0
 28 92  1  0
 29 93  1  0
 30 94  1  0
 32 95  1  0
 32 96  1  0
 33 97  1  0
 34 98  1  0
 34 99  1  0
 36100  1  0
 36101  1  0
 36102  1  0
 37103  1  0
 37104  1  0
 38105  1  0
 38106  1  0
 38107  1  0
 39108  1  0
 39109  1  0
 41110  1  0
 41111  1  0
 43112  1  0
 43113  1  0
 44114  1  0
 44115  1  0
 45116  1  0
 45117  1  0
 45118  1  0
M  END
$$$$
