
     RDKit          2D

 99112  0  0  0  0  0  0  0  0999 V2000
    2.6403   -4.2621    0.0000 C   0  0  0  0  0  0  0  0  0  0  0  0
    1.2808   -4.8961    0.0000 C   0  0  0  0  0  0  0  0  0  0  0  0
    0.0521   -4.0357    0.0000 C   0  0  0  0  0  0  0  0  0  0  0  0
   -1.1767   -3.1753    0.0000 C   0  0  0  0  0  0  0  0  0  0  0  0
   -2.5361   -3.8093    0.0000 C   0  0  0  0  0  0  0  0  0  0  0  0
   -4.4648   -2.9489    0.0000 C   0  0  0  0  0  0  0  0  0  0  0  0
   -4.1531   -1.5000    0.0000 C   0  0  0  0  0  0  0  0  0  0  0  0
   -4.5413   -2.9489    0.0000 N   0  0  0  0  0  0  0  0  0  0  0  0
   -4.1531   -4.3978    0.0000 C   0  0  0  0  0  0  0  0  0  0  0  0
   -4.5413   -5.8467    0.0000 C   0  0  0  0  0  0  0  0  0  0  0  0
   -4.1818   -7.2275    0.0000 O   0  0  0  0  0  0  0  0  0  0  0  0
   -2.9224   -8.0422    0.0000 C   0  0  0  0  0  0  0  0  0  0  0  0
   -3.2572   -9.5044    0.0000 C   0  0  0  0  0  0  0  0  0  0  0  0
   -1.4339   -7.8568    0.0000 C   0  0  0  0  0  0  0  0  0  0  0  0
    0.8660   -4.3978    0.0000 C   0  0  0  0  0  0  0  0  0  0  0  0
    1.2543   -2.9489    0.0000 C   0  0  0  0  0  0  0  0  0  0  0  0
    0.8660   -1.5000    0.0000 C   0  0  0  0  0  0  0  0  0  0  0  0
    0.8660    0.0000    0.0000 C   0  0  0  0  0  0  0  0  0  0  0  0
   -0.4330    0.7500    0.0000 C   0  0  0  0  0  0  0  0  0  0  0  0
   -1.7321    0.0000    0.0000 C   0  0  0  0  0  0  0  0  0  0  0  0
   -3.2321    0.0000    0.0000 C   0  0  0  0  0  0  0  0  0  0  0  0
   -3.0924   -0.4393    0.0000 N   0  0  0  0  0  0  0  0  0  0  0  0
   -0.4330   -0.7500    0.0000 C   0  0  0  0  0  0  0  0  0  0  0  0
   -0.1946   -5.4584    0.0000 C   0  0  0  0  0  0  0  0  0  0  0  0
   -1.6435   -5.8467    0.0000 C   0  0  0  0  0  0  0  0  0  0  0  0
   -0.8935   -7.1457    0.0000 C   0  0  0  0  0  0  0  0  0  0  0  0
   -1.2818   -8.5946    0.0000 C   0  0  0  0  0  0  0  0  0  0  0  0
   -1.9827   -9.9208    0.0000 C   0  0  0  0  0  0  0  0  0  0  0  0
   -3.4565  -10.1996    0.0000 C   0  0  0  0  0  0  0  0  0  0  0  0
   -4.5935   -9.2212    0.0000 C   0  0  0  0  0  0  0  0  0  0  0  0
   -4.7797   -7.6573    0.0000 C   0  0  0  0  0  0  0  0  0  0  0  0
   -4.3915   -6.2084    0.0000 C   0  0  0  0  0  0  0  0  0  0  0  0
   -3.0924   -5.4584    0.0000 C   0  0  0  0  0  0  0  0  0  0  0  0
   -4.0297   -8.9564    0.0000 C   0  0  0  0  0  0  0  0  0  0  0  0
   -2.5808   -9.3446    0.0000 C   0  0  0  0  0  0  0  0  0  0  0  0
   -2.5317   -8.8790    0.0000 C   0  0  0  0  0  0  0  0  0  0  0  0
   -2.8872  -10.3362    0.0000 C   0  0  0  0  0  0  0  0  0  0  0  0
   -3.2426  -11.7935    0.0000 C   0  0  0  0  0  0  0  0  0  0  0  0
   -3.5981  -13.2508    0.0000 C   0  0  0  0  0  0  0  0  0  0  0  0
   -0.8083   -5.2644    0.0000 C   0  0  0  0  0  0  0  0  0  0  0  0
   -2.1678   -4.6305    0.0000 C   0  0  0  0  0  0  0  0  0  0  0  0
   -2.0370   -6.1248    0.0000 C   0  0  0  0  0  0  0  0  0  0  0  0
   -3.2657   -6.9851    0.0000 C   0  0  0  0  0  0  0  0  0  0  0  0
   -4.6252   -6.3512    0.0000 C   0  0  0  0  0  0  0  0  0  0  0  0
   -3.3965   -5.4909    0.0000 C   0  0  0  0  0  0  0  0  0  0  0  0
    3.8690   -5.1225    0.0000 H   0  0  0  0  0  0  0  0  0  0  0  0
    2.9522   -2.7949    0.0000 H   0  0  0  0  0  0  0  0  0  0  0  0
    1.5155   -6.3776    0.0000 H   0  0  0  0  0  0  0  0  0  0  0  0
    0.7562   -2.7113    0.0000 H   0  0  0  0  0  0  0  0  0  0  0  0
   -1.0459   -1.6810    0.0000 H   0  0  0  0  0  0  0  0  0  0  0  0
   -2.6668   -5.3035    0.0000 H   0  0  0  0  0  0  0  0  0  0  0  0
   -2.5361   -2.0885    0.0000 H   0  0  0  0  0  0  0  0  0  0  0  0
   -5.4521   -0.7500    0.0000 H   0  0  0  0  0  0  0  0  0  0  0  0
   -6.0413   -2.9489    0.0000 H   0  0  0  0  0  0  0  0  0  0  0  0
   -5.8271   -6.6192    0.0000 H   0  0  0  0  0  0  0  0  0  0  0  0
   -4.4375  -10.4301    0.0000 H   0  0  0  0  0  0  0  0  0  0  0  0
   -2.9429  -10.9711    0.0000 H   0  0  0  0  0  0  0  0  0  0  0  0
   -0.1910   -8.6965    0.0000 H   0  0  0  0  0  0  0  0  0  0  0  0
    2.1651   -5.1478    0.0000 H   0  0  0  0  0  0  0  0  0  0  0  0
    2.3689   -1.9452    0.0000 H   0  0  0  0  0  0  0  0  0  0  0  0
    2.6547   -3.4864    0.0000 H   0  0  0  0  0  0  0  0  0  0  0  0
    2.0318   -2.4439    0.0000 H   0  0  0  0  0  0  0  0  0  0  0  0
    2.1651    0.7500    0.0000 H   0  0  0  0  0  0  0  0  0  0  0  0
   -0.4330    2.2500    0.0000 H   0  0  0  0  0  0  0  0  0  0  0  0
   -4.7321    0.0000    0.0000 H   0  0  0  0  0  0  0  0  0  0  0  0
   -3.0492    1.4888    0.0000 H   0  0  0  0  0  0  0  0  0  0  0  0
   -3.2321   -1.5000    0.0000 H   0  0  0  0  0  0  0  0  0  0  0  0
   -3.9952    0.7586    0.0000 H   0  0  0  0  0  0  0  0  0  0  0  0
    1.0774   -6.2534    0.0000 H   0  0  0  0  0  0  0  0  0  0  0  0
    0.3916   -6.8391    0.0000 H   0  0  0  0  0  0  0  0  0  0  0  0
   -0.3380   -6.5853    0.0000 H   0  0  0  0  0  0  0  0  0  0  0  0
    0.4872   -7.7318    0.0000 H   0  0  0  0  0  0  0  0  0  0  0  0
    0.5410   -6.7073    0.0000 H   0  0  0  0  0  0  0  0  0  0  0  0
   -0.0917   -9.5077    0.0000 H   0  0  0  0  0  0  0  0  0  0  0  0
   -0.5338  -10.3090    0.0000 H   0  0  0  0  0  0  0  0  0  0  0  0
   -1.4977  -11.3402    0.0000 H   0  0  0  0  0  0  0  0  0  0  0  0
   -3.3893  -11.6981    0.0000 H   0  0  0  0  0  0  0  0  0  0  0  0
   -4.6634  -11.0904    0.0000 H   0  0  0  0  0  0  0  0  0  0  0  0
   -5.7231  -10.2080    0.0000 H   0  0  0  0  0  0  0  0  0  0  0  0
   -6.0424   -8.8330    0.0000 H   0  0  0  0  0  0  0  0  0  0  0  0
   -6.2319   -8.0329    0.0000 H   0  0  0  0  0  0  0  0  0  0  0  0
   -5.1187   -4.8965    0.0000 H   0  0  0  0  0  0  0  0  0  0  0  0
   -5.8803   -6.3913    0.0000 H   0  0  0  0  0  0  0  0  0  0  0  0
   -5.0811  -10.0262    0.0000 H   0  0  0  0  0  0  0  0  0  0  0  0
   -3.3308  -10.6436    0.0000 H   0  0  0  0  0  0  0  0  0  0  0  0
   -1.6573  -10.5266    0.0000 H   0  0  0  0  0  0  0  0  0  0  0  0
   -1.3397   -9.7895    0.0000 H   0  0  0  0  0  0  0  0  0  0  0  0
   -1.5592  -11.0338    0.0000 H   0  0  0  0  0  0  0  0  0  0  0  0
   -4.3871  -10.3439    0.0000 H   0  0  0  0  0  0  0  0  0  0  0  0
   -1.8396  -12.3240    0.0000 H   0  0  0  0  0  0  0  0  0  0  0  0
   -4.7324  -11.6183    0.0000 H   0  0  0  0  0  0  0  0  0  0  0  0
   -3.9536  -14.7080    0.0000 H   0  0  0  0  0  0  0  0  0  0  0  0
   -5.0554  -12.8953    0.0000 H   0  0  0  0  0  0  0  0  0  0  0  0
   -2.1409  -13.6063    0.0000 H   0  0  0  0  0  0  0  0  0  0  0  0
    0.2524   -6.3251    0.0000 H   0  0  0  0  0  0  0  0  0  0  0  0
   -2.6562   -3.2122    0.0000 H   0  0  0  0  0  0  0  0  0  0  0  0
   -2.4487   -8.2431    0.0000 H   0  0  0  0  0  0  0  0  0  0  0  0
   -5.7573   -7.3352    0.0000 H   0  0  0  0  0  0  0  0  0  0  0  0
   -5.6859   -5.2906    0.0000 H   0  0  0  0  0  0  0  0  0  0  0  0
  1  2  2  3
  2  3  1  0
  3  4  1  0
  4  5  2  3
  5  6  1  0
  6  7  1  0
  7  8  1  0
  9  8  1  1
  9 10  1  0
 10 11  1  0
 11 12  1  0
 12 13  2  3
 12 14  1  0
 14 15  1  0
 15 16  1  0
 16 17  1  0
 17 18  1  0
 18 19  1  0
 19 20  1  0
 20 21  1  1
 20 22  1  0
 23 20  1  1
 15 24  1  0
 24 25  1  0
 25 26  1  0
 26 27  1  0
 27 28  1  0
 28 29  1  0
 29 30  1  0
 30 31  1  0
 31 32  1  0
 33 32  1  6
 31 34  1  0
 34 35  1  0
 34 36  1  0
 36 37  1  0
 37 38  1  0
 38 39  1  0
  3 40  1  0
 40 41  1  0
 41 42  1  0
 42 43  1  0
 43 44  1  0
 45 44  1  1
  9  6  1  0
 33 10  1  0
 42 40  1  0
 45 43  1  0
 22  7  1  0
 33 25  1  0
 45 41  1  0
 33  9  1  0
 42 45  1  1
 36 14  1  0
 23 17  1  0
 35 27  1  0
 23 18  1  0
 23 19  1  0
  1 46  1  0
  1 47  1  0
  2 48  1  0
  3 49  1  1
  4 50  1  0
  5 51  1  0
  6 52  1  1
  7 53  1  1
  8 54  1  0
 10 55  1  1
 13 56  1  0
 13 57  1  0
 14 58  1  1
 15 59  1  6
 16 60  1  0
 16 61  1  0
 17 62  1  1
 18 63  1  6
 19 64  1  6
 21 65  1  0
 21 66  1  0
 21 67  1  0
 22 68  1  0
 24 69  1  0
 24 70  1  0
 25 71  1  6
 26 72  1  0
 26 73  1  0
 27 74  1  1
 28 75  1  0
 28 76  1  0
 29 77  1  0
 29 78  1  0
 30 79  1  0
 30 80  1  0
 31 81  1  1
 32 82  1  0
 32 83  1  0
 34 84  1  6
 35 85  1  0
 35 86  1  0
 36 87  1  1
 37 88  1  0
 37 89  1  0
 38 90  1  0
 38 91  1  0
 39 92  1  0
 39 93  1  0
 39 94  1  0
 40 95  1  1
 41 96  1  6
 43 97  1  6
 44 98  1  0
 44 99  1  0
M  END
$$$$
