
     RDKit          2D

 43 42  0  0  0  0  0  0  0  0999 V2000
    9.0933    5.2500    0.0000 C   0  0  0  0  0  0  0  0  0  0  0  0
    7.7942    4.5000    0.0000 C   0  0  0  0  0  0  0  0  0  0  0  0
    6.4952    3.7500    0.0000 C   0  0  0  0  0  0  0  0  0  0  0  0
    5.1962    3.0000    0.0000 C   0  0  0  0  0  0  0  0  0  0  0  0
    5.9462    1.7010    0.0000 O   0  0  0  0  0  0  0  0  0  0  0  0
    3.8971    2.2500    0.0000 C   0  0  0  0  0  0  0  0  0  0  0  0
    2.5981    1.5000    0.0000 C   0  0  0  0  0  0  0  0  0  0  0  0
    1.2990    0.7500    0.0000 C   0  0  0  0  0  0  0  0  0  0  0  0
    0.0000    0.0000    0.0000 C   0  0  0  0  0  0  0  0  0  0  0  0
   -1.2990    0.7500    0.0000 Al  0  0  0  0  0  3  0  0  0  0  0  0
   -0.0000   -1.5000    0.0000 Se  0  0  0  0  0  2  0  0  0  0  0  0
   -1.2990   -2.2500    0.0000 C   0  0  0  0  0  0  0  0  0  0  0  0
   -2.5981   -3.0000    0.0000 C   0  0  0  0  0  0  0  0  0  0  0  0
   -3.3481   -1.7010    0.0000 N   0  0  0  0  0  2  0  0  0  0  0  0
   -1.8481   -4.2990    0.0000 O   0  0  0  0  0  1  0  0  0  0  0  0
   -3.8971   -3.7500    0.0000 C   0  0  0  0  0  0  0  0  0  0  0  0
   -5.1962   -4.5000    0.0000 C   0  0  0  0  0  0  0  0  0  0  0  0
   -6.4952   -5.2500    0.0000 N   0  0  0  0  0  0  0  0  0  0  0  0
   10.3923    6.0000    0.0000 H   0  0  0  0  0  0  0  0  0  0  0  0
    9.8433    3.9510    0.0000 H   0  0  0  0  0  0  0  0  0  0  0  0
    8.3433    6.5490    0.0000 H   0  0  0  0  0  0  0  0  0  0  0  0
    8.5442    3.2010    0.0000 H   0  0  0  0  0  0  0  0  0  0  0  0
    7.0442    5.7990    0.0000 H   0  0  0  0  0  0  0  0  0  0  0  0
    5.7452    5.0490    0.0000 H   0  0  0  0  0  0  0  0  0  0  0  0
    7.3979    2.5521    0.0000 H   0  0  0  0  0  0  0  0  0  0  0  0
    4.4462    4.2990    0.0000 H   0  0  0  0  0  0  0  0  0  0  0  0
    7.4350    1.5181    0.0000 H   0  0  0  0  0  0  0  0  0  0  0  0
    3.1471    3.5490    0.0000 H   0  0  0  0  0  0  0  0  0  0  0  0
    4.6471    0.9510    0.0000 H   0  0  0  0  0  0  0  0  0  0  0  0
    3.3481    0.2010    0.0000 H   0  0  0  0  0  0  0  0  0  0  0  0
    1.8481    2.7990    0.0000 H   0  0  0  0  0  0  0  0  0  0  0  0
    2.0490   -0.5490    0.0000 H   0  0  0  0  0  0  0  0  0  0  0  0
    0.5490    2.0490    0.0000 H   0  0  0  0  0  0  0  0  0  0  0  0
   -2.5981    1.5000    0.0000 H   0  0  0  0  0  0  0  0  0  0  0  0
   -2.0490   -0.9510    0.0000 H   0  0  0  0  0  0  0  0  0  0  0  0
   -0.5490   -3.5490    0.0000 H   0  0  0  0  0  0  0  0  0  0  0  0
   -4.8369   -1.5181    0.0000 H   0  0  0  0  0  0  0  0  0  0  0  0
   -3.1471   -5.0490    0.0000 H   0  0  0  0  0  0  0  0  0  0  0  0
   -4.7999   -2.5521    0.0000 H   0  0  0  0  0  0  0  0  0  0  0  0
   -5.9462   -3.2010    0.0000 H   0  0  0  0  0  0  0  0  0  0  0  0
   -4.4462   -5.7990    0.0000 H   0  0  0  0  0  0  0  0  0  0  0  0
   -6.4952   -6.7500    0.0000 H   0  0  0  0  0  0  0  0  0  0  0  0
   -7.7942   -4.5000    0.0000 H   0  0  0  0  0  0  0  0  0  0  0  0
  1  2  1  0
  2  3  1  0
  3  4  1  0
  4  5  1  0
  4  6  1  0
  6  7  1  0
  7  8  1  0
  8  9  1  0
  9 10  2  3
  9 11  1  0
 11 12  1  0
 12 13  1  0
 13 14  1  0
 13 15  1  0
 13 16  1  0
 16 17  1  0
 17 18  1  0
  1 19  1  0
  1 20  1  0
  1 21  1  0
  2 22  1  0
  2 23  1  0
  3 24  1  0
  3 25  1  0
  4 26  1  0
  5 27  1  0
  6 28  1  0
  6 29  1  0
  7 30  1  0
  7 31  1  0
  8 32  1  0
  8 33  1  0
 10 34  1  0
 12 35  1  0
 12 36  1  0
 14 37  1  0
 16 38  1  0
 16 39  1  0
 17 40  1  0
 17 41  1  0
 18 42  1  0
 18 43  1  0
M  RAD  2  14   2  15   2
M  END
$$$$
