
     RDKit          2D

 34 36  0  0  0  0  0  0  0  0999 V2000
    4.3467    3.5702    0.0000 N   0  0  0  0  0  0  0  0  0  0  0  0
    3.9584    2.1213    0.0000 C   0  0  0  0  0  0  0  0  0  0  0  0
    3.5702    0.6724    0.0000 C   0  0  0  0  0  0  0  0  0  0  0  0
    3.1820   -0.7765    0.0000 N   0  0  0  0  0  0  0  0  0  0  0  0
    5.0191    0.2842    0.0000 N   0  0  0  0  0  0  0  0  0  0  0  0
    2.1213    1.0607    0.0000 N   0  0  0  0  0  0  0  0  0  0  0  0
    1.0607    0.0000    0.0000 C   0  0  0  0  0  0  0  0  0  0  0  0
   -0.0000   -1.0607    0.0000 O   0  0  0  0  0  0  0  0  0  0  0  0
   -1.0607    0.0000    0.0000 C   0  0  0  0  0  0  0  0  0  0  0  0
   -2.5095    0.3882    0.0000 N   0  0  0  0  0  0  0  0  0  0  0  0
   -2.8978    1.8371    0.0000 C   0  0  0  0  0  0  0  0  0  0  0  0
   -3.2860    3.2860    0.0000 C   0  0  0  0  0  0  0  0  0  0  0  0
   -1.8371    2.8978    0.0000 C   0  0  0  0  0  0  0  0  0  0  0  0
   -0.3882    2.5095    0.0000 C   0  0  0  0  0  0  0  0  0  0  0  0
    0.0000    1.0607    0.0000 C   0  0  0  0  0  0  0  0  0  0  0  0
    3.2860    4.6309    0.0000 H   0  0  0  0  0  0  0  0  0  0  0  0
    5.7956    3.9584    0.0000 H   0  0  0  0  0  0  0  0  0  0  0  0
    2.8319    2.5765    0.0000 H   0  0  0  0  0  0  0  0  0  0  0  0
    5.4438    1.9126    0.0000 H   0  0  0  0  0  0  0  0  0  0  0  0
    4.2426   -1.8371    0.0000 H   0  0  0  0  0  0  0  0  0  0  0  0
    2.4429   -1.0751    0.0000 H   0  0  0  0  0  0  0  0  0  0  0  0
    5.4073   -1.1647    0.0000 H   0  0  0  0  0  0  0  0  0  0  0  0
    6.2011    1.2077    0.0000 H   0  0  0  0  0  0  0  0  0  0  0  0
    1.9523    2.2638    0.0000 H   0  0  0  0  0  0  0  0  0  0  0  0
    1.6060   -0.6980    0.0000 H   0  0  0  0  0  0  0  0  0  0  0  0
   -1.8107   -1.2990    0.0000 H   0  0  0  0  0  0  0  0  0  0  0  0
   -3.5702   -0.6724    0.0000 H   0  0  0  0  0  0  0  0  0  0  0  0
   -4.3467    1.4489    0.0000 H   0  0  0  0  0  0  0  0  0  0  0  0
   -4.7803    3.1553    0.0000 H   0  0  0  0  0  0  0  0  0  0  0  0
   -3.1553    4.7803    0.0000 H   0  0  0  0  0  0  0  0  0  0  0  0
   -1.8632    1.3980    0.0000 H   0  0  0  0  0  0  0  0  0  0  0  0
    1.0300    2.9980    0.0000 H   0  0  0  0  0  0  0  0  0  0  0  0
   -0.2575    4.0038    0.0000 H   0  0  0  0  0  0  0  0  0  0  0  0
    1.2990    1.8107    0.0000 H   0  0  0  0  0  0  0  0  0  0  0  0
  1  2  1  0
  2  3  1  0
  3  4  1  0
  3  5  1  0
  3  6  1  0
  6  7  1  0
  7  8  1  0
  8  9  1  0
  9 10  1  0
 10 11  1  0
 11 12  1  0
 12 13  1  0
 13 14  1  0
 14 15  1  0
 15  7  1  0
 15  9  1  0
 13 11  1  0
  1 16  1  0
  1 17  1  0
  2 18  1  0
  2 19  1  0
  4 20  1  0
  4 21  1  0
  5 22  1  0
  5 23  1  0
  6 24  1  0
  7 25  1  0
  9 26  1  0
 10 27  1  0
 11 28  1  0
 12 29  1  0
 12 30  1  0
 13 31  1  0
 14 32  1  0
 14 33  1  0
 15 34  1  0
M  END
$$$$
