
     RDKit          2D

 30 33  0  0  0  0  0  0  0  0999 V2000
    4.2171    6.9856    0.0000 O   0  0  0  0  0  0  0  0  0  0  0  0
    4.2171    5.4856    0.0000 C   0  0  0  0  0  0  0  0  0  0  0  0
    2.7398    5.2252    0.0000 C   0  0  0  0  0  0  0  0  0  0  0  0
    3.7040    4.0761    0.0000 C   0  0  0  0  0  0  0  0  0  0  0  0
    2.5550    3.1119    0.0000 C   0  0  0  0  0  0  0  0  0  0  0  0
    1.0777    2.8515    0.0000 C   0  0  0  0  0  0  0  0  0  0  0  0
    1.0777    1.3515    0.0000 C   0  0  0  0  0  0  0  0  0  0  0  0
    1.7286    0.0000    0.0000 C   0  0  0  0  0  0  0  0  0  0  0  0
    1.0777   -1.3515    0.0000 C   0  0  0  0  0  0  0  0  0  0  0  0
   -0.3846   -1.6852    0.0000 C   0  0  0  0  0  0  0  0  0  0  0  0
   -1.5574   -0.7500    0.0000 C   0  0  0  0  0  0  0  0  0  0  0  0
   -1.5574    0.7500    0.0000 C   0  0  0  0  0  0  0  0  0  0  0  0
   -0.3846    1.6852    0.0000 C   0  0  0  0  0  0  0  0  0  0  0  0
    1.5908    4.2610    0.0000 C   0  0  0  0  0  0  0  0  0  0  0  0
    5.5161    7.7356    0.0000 H   0  0  0  0  0  0  0  0  0  0  0  0
    5.6943    5.2252    0.0000 H   0  0  0  0  0  0  0  0  0  0  0  0
    2.1059    6.5846    0.0000 H   0  0  0  0  0  0  0  0  0  0  0  0
    4.9328    3.2157    0.0000 H   0  0  0  0  0  0  0  0  0  0  0  0
    3.2704    1.9671    0.0000 H   0  0  0  0  0  0  0  0  0  0  0  0
    0.3154    3.0845    0.0000 H   0  0  0  0  0  0  0  0  0  0  0  0
    2.4207    1.4892    0.0000 H   0  0  0  0  0  0  0  0  0  0  0  0
    3.2286   -0.0000    0.0000 H   0  0  0  0  0  0  0  0  0  0  0  0
    2.0130   -2.5242    0.0000 H   0  0  0  0  0  0  0  0  0  0  0  0
   -0.7184   -3.1476    0.0000 H   0  0  0  0  0  0  0  0  0  0  0  0
   -2.9088   -1.4008    0.0000 H   0  0  0  0  0  0  0  0  0  0  0  0
   -3.0198    0.4162    0.0000 H   0  0  0  0  0  0  0  0  0  0  0  0
   -2.3681    2.0120    0.0000 H   0  0  0  0  0  0  0  0  0  0  0  0
   -1.4346    2.7564    0.0000 H   0  0  0  0  0  0  0  0  0  0  0  0
   -0.1289    2.4403    0.0000 H   0  0  0  0  0  0  0  0  0  0  0  0
    0.3621    5.1214    0.0000 H   0  0  0  0  0  0  0  0  0  0  0  0
  1  2  1  0
  2  3  1  0
  3  4  1  0
  4  5  1  0
  5  6  1  0
  6  7  1  0
  7  8  1  0
  8  9  2  0
  9 10  1  0
 10 11  2  0
 11 12  1  0
 12 13  1  0
  6 14  1  0
  4  2  1  0
 14  5  1  0
 14  3  1  0
 13  7  1  0
  1 15  1  0
  2 16  1  0
  3 17  1  0
  4 18  1  0
  5 19  1  0
  6 20  1  0
  7 21  1  0
  8 22  1  0
  9 23  1  0
 10 24  1  0
 11 25  1  0
 12 26  1  0
 12 27  1  0
 13 28  1  0
 13 29  1  0
 14 30  1  0
M  END
$$$$
