
     RDKit          2D

 94104  0  0  0  0  0  0  0  0999 V2000
    4.4954  -10.3008    0.0000 C   0  0  0  0  0  0  0  0  0  0  0  0
    3.5535  -11.4682    0.0000 C   0  0  0  0  0  0  0  0  0  0  0  0
    2.1145  -11.0447    0.0000 C   0  0  0  0  0  0  0  0  0  0  0  0
    0.7976  -11.7628    0.0000 C   0  0  0  0  0  0  0  0  0  0  0  0
   -1.1061  -13.3600    0.0000 C   0  0  0  0  0  0  0  0  0  0  0  0
    0.0430  -14.3242    0.0000 C   0  0  0  0  0  0  0  0  0  0  0  0
    1.1920  -15.2884    0.0000 C   0  0  0  0  0  0  0  0  0  0  0  0
    2.6016  -14.7753    0.0000 C   0  0  0  0  0  0  0  0  0  0  0  0
    2.8621  -13.2981    0.0000 C   0  0  0  0  0  0  0  0  0  0  0  0
    1.7130  -12.3340    0.0000 C   0  0  0  0  0  0  0  0  0  0  0  0
    3.0010  -12.5103    0.0000 C   0  0  0  0  0  0  0  0  0  0  0  0
    4.2716  -10.8567    0.0000 C   0  0  0  0  0  0  0  0  0  0  0  0
    5.4207   -9.8926    0.0000 C   0  0  0  0  0  0  0  0  0  0  0  0
    3.3074   -9.7077    0.0000 C   0  0  0  0  0  0  0  0  0  0  0  0
    2.3432   -8.5586    0.0000 C   0  0  0  0  0  0  0  0  0  0  0  0
    1.3791   -7.4095    0.0000 C   0  0  0  0  0  0  0  0  0  0  0  0
    0.0800   -8.1595    0.0000 C   0  0  0  0  0  0  0  0  0  0  0  0
   -1.2190   -7.4095    0.0000 N   0  0  0  0  0  0  0  0  0  0  0  0
    0.0800   -6.6595    0.0000 C   0  0  0  0  0  0  0  0  0  0  0  0
    0.0800   -5.1595    0.0000 C   0  0  0  0  0  0  0  0  0  0  0  0
    0.0800   -3.6595    0.0000 C   0  0  0  0  0  0  0  0  0  0  0  0
   -1.3754   -4.0225    0.0000 F   0  0  0  0  0  0  0  0  0  0  0  0
    0.0800   -2.1595    0.0000 C   0  0  0  0  0  0  0  0  0  0  0  0
   -1.3972   -1.8991    0.0000 C   0  0  0  0  0  0  0  0  0  0  0  0
   -2.8744   -2.1595    0.0000 C   0  0  0  0  0  0  0  0  0  0  0  0
   -4.1734   -1.4095    0.0000 C   0  0  0  0  0  0  0  0  0  0  0  0
   -4.6865    0.0000    0.0000 C   0  0  0  0  0  0  0  0  0  0  0  0
   -4.1734    1.4095    0.0000 C   0  0  0  0  0  0  0  0  0  0  0  0
   -2.8744    2.1595    0.0000 C   0  0  0  0  0  0  0  0  0  0  0  0
   -1.3972    1.8991    0.0000 C   0  0  0  0  0  0  0  0  0  0  0  0
   -0.4330    0.7500    0.0000 C   0  0  0  0  0  0  0  0  0  0  0  0
    0.8660    0.0000    0.0000 C   0  0  0  0  0  0  0  0  0  0  0  0
   -0.4330   -0.7500    0.0000 C   0  0  0  0  0  0  0  0  0  0  0  0
   -5.6000    0.9460    0.0000 C   0  0  0  0  0  0  0  0  0  0  0  0
   -6.8991    0.1960    0.0000 C   0  0  0  0  0  0  0  0  0  0  0  0
   -7.8632    1.3451    0.0000 C   0  0  0  0  0  0  0  0  0  0  0  0
   -5.6000   -0.5540    0.0000 C   0  0  0  0  0  0  0  0  0  0  0  0
    4.2716  -12.7851    0.0000 C   0  0  0  0  0  0  0  0  0  0  0  0
    4.0111  -14.2623    0.0000 C   0  0  0  0  0  0  0  0  0  0  0  0
    4.4497  -15.6968    0.0000 I   0  0  0  0  0  0  0  0  0  0  0  0
    0.3035  -12.8470    0.0000 C   0  0  0  0  0  0  0  0  0  0  0  0
    5.9380  -10.7117    0.0000 H   0  0  0  0  0  0  0  0  0  0  0  0
    3.9554   -8.9013    0.0000 H   0  0  0  0  0  0  0  0  0  0  0  0
    2.5630   -9.6133    0.0000 H   0  0  0  0  0  0  0  0  0  0  0  0
    1.0801   -9.9585    0.0000 H   0  0  0  0  0  0  0  0  0  0  0  0
    0.1025  -10.4335    0.0000 H   0  0  0  0  0  0  0  0  0  0  0  0
   -0.6863  -11.5437    0.0000 H   0  0  0  0  0  0  0  0  0  0  0  0
   -2.5833  -13.0995    0.0000 H   0  0  0  0  0  0  0  0  0  0  0  0
    0.7005  -12.9760    0.0000 H   0  0  0  0  0  0  0  0  0  0  0  0
    1.9420  -16.5874    0.0000 H   0  0  0  0  0  0  0  0  0  0  0  0
    0.0430  -16.2526    0.0000 H   0  0  0  0  0  0  0  0  0  0  0  0
    3.6246  -15.8724    0.0000 H   0  0  0  0  0  0  0  0  0  0  0  0
    3.6121  -11.9991    0.0000 H   0  0  0  0  0  0  0  0  0  0  0  0
    4.3539  -13.4548    0.0000 H   0  0  0  0  0  0  0  0  0  0  0  0
    1.2493  -10.9074    0.0000 H   0  0  0  0  0  0  0  0  0  0  0  0
    2.0805  -10.7420    0.0000 H   0  0  0  0  0  0  0  0  0  0  0  0
    5.3687  -11.8797    0.0000 H   0  0  0  0  0  0  0  0  0  0  0  0
    6.5697   -8.9284    0.0000 H   0  0  0  0  0  0  0  0  0  0  0  0
    6.5177  -10.9155    0.0000 H   0  0  0  0  0  0  0  0  0  0  0  0
    4.7632   -8.5443    0.0000 H   0  0  0  0  0  0  0  0  0  0  0  0
    4.1890   -8.4941    0.0000 H   0  0  0  0  0  0  0  0  0  0  0  0
    1.8402  -10.0194    0.0000 H   0  0  0  0  0  0  0  0  0  0  0  0
    1.0852   -9.3755    0.0000 H   0  0  0  0  0  0  0  0  0  0  0  0
    3.4923   -7.5944    0.0000 H   0  0  0  0  0  0  0  0  0  0  0  0
    2.3432   -6.2605    0.0000 H   0  0  0  0  0  0  0  0  0  0  0  0
   -0.1028   -9.6484    0.0000 H   0  0  0  0  0  0  0  0  0  0  0  0
   -2.7190   -7.4095    0.0000 H   0  0  0  0  0  0  0  0  0  0  0  0
   -1.4200   -5.1595    0.0000 H   0  0  0  0  0  0  0  0  0  0  0  0
    1.5800   -5.1595    0.0000 H   0  0  0  0  0  0  0  0  0  0  0  0
    1.5800   -3.6595    0.0000 H   0  0  0  0  0  0  0  0  0  0  0  0
    1.5780   -2.0811    0.0000 H   0  0  0  0  0  0  0  0  0  0  0  0
   -1.3972   -3.3991    0.0000 H   0  0  0  0  0  0  0  0  0  0  0  0
   -2.5456   -3.6231    0.0000 H   0  0  0  0  0  0  0  0  0  0  0  0
   -3.9655   -3.1889    0.0000 H   0  0  0  0  0  0  0  0  0  0  0  0
   -5.3225   -2.3737    0.0000 H   0  0  0  0  0  0  0  0  0  0  0  0
   -6.0706   -0.5780    0.0000 H   0  0  0  0  0  0  0  0  0  0  0  0
   -6.0706    0.5780    0.0000 H   0  0  0  0  0  0  0  0  0  0  0  0
   -5.1964    2.5066    0.0000 H   0  0  0  0  0  0  0  0  0  0  0  0
   -3.9655    3.1889    0.0000 H   0  0  0  0  0  0  0  0  0  0  0  0
   -2.3696    3.5721    0.0000 H   0  0  0  0  0  0  0  0  0  0  0  0
   -1.3884    3.3990    0.0000 H   0  0  0  0  0  0  0  0  0  0  0  0
   -0.1026    2.6566    0.0000 H   0  0  0  0  0  0  0  0  0  0  0  0
    0.6640    1.7730    0.0000 H   0  0  0  0  0  0  0  0  0  0  0  0
    1.8302    1.1491    0.0000 H   0  0  0  0  0  0  0  0  0  0  0  0
    1.9631   -1.0230    0.0000 H   0  0  0  0  0  0  0  0  0  0  0  0
   -6.2101    2.3163    0.0000 H   0  0  0  0  0  0  0  0  0  0  0  0
   -7.8632   -0.9531    0.0000 H   0  0  0  0  0  0  0  0  0  0  0  0
   -8.8274    2.4941    0.0000 H   0  0  0  0  0  0  0  0  0  0  0  0
   -9.0123    0.3809    0.0000 H   0  0  0  0  0  0  0  0  0  0  0  0
   -6.8403    2.4421    0.0000 H   0  0  0  0  0  0  0  0  0  0  0  0
   -5.0382    0.8368    0.0000 H   0  0  0  0  0  0  0  0  0  0  0  0
    5.7332  -12.4477    0.0000 H   0  0  0  0  0  0  0  0  0  0  0  0
    5.5111  -14.2623    0.0000 H   0  0  0  0  0  0  0  0  0  0  0  0
   -0.3776  -11.5105    0.0000 H   0  0  0  0  0  0  0  0  0  0  0  0
  1  2  2  3
  2  3  1  0
  3  4  1  0
  4  5  1  0
  5  6  1  0
  6  7  1  0
  7  8  1  0
  8  9  1  0
  9 10  1  0
 10 11  1  0
 11 12  1  0
 12 13  1  0
 12 14  1  0
 14 15  1  0
 15 16  1  0
 16 17  1  0
 17 18  1  0
 18 19  1  0
 19 20  1  1
 20 21  1  0
 21 22  1  0
 21 23  1  0
 23 24  1  0
 24 25  1  0
 25 26  1  0
 26 27  1  0
 27 28  1  0
 28 29  1  0
 29 30  1  0
 30 31  1  0
 31 32  1  0
 33 32  1  6
 28 34  1  0
 34 35  1  0
 35 36  1  0
 35 37  1  0
 11 38  1  0
 38 39  1  0
 39 40  1  0
 10 41  1  0
 38  2  1  0
 41  5  1  0
 41  6  1  0
 39  8  1  0
 19 16  1  0
 33 23  1  0
 37 34  1  0
 19 17  1  0
 33 24  1  0
 37 26  1  0
 33 31  1  0
  1 42  1  0
  1 43  1  0
  3 44  1  0
  3 45  1  0
  4 46  1  0
  4 47  1  0
  5 48  1  6
  6 49  1  6
  7 50  1  0
  7 51  1  0
  8 52  1  1
  9 53  1  0
  9 54  1  0
 10 55  1  1
 11 56  1  1
 12 57  1  1
 13 58  1  0
 13 59  1  0
 13 60  1  0
 14 61  1  0
 14 62  1  0
 15 63  1  0
 15 64  1  0
 16 65  1  6
 17 66  1  1
 18 67  1  0
 20 68  1  0
 20 69  1  0
 21 70  1  1
 23 71  1  1
 24 72  1  6
 25 73  1  0
 25 74  1  0
 26 75  1  6
 27 76  1  0
 27 77  1  0
 28 78  1  1
 29 79  1  0
 29 80  1  0
 30 81  1  0
 30 82  1  0
 31 83  1  6
 32 84  1  0
 32 85  1  0
 34 86  1  6
 35 87  1  6
 36 88  1  0
 36 89  1  0
 36 90  1  0
 37 91  1  6
 38 92  1  1
 39 93  1  1
 41 94  1  6
M  END
$$$$
