
     RDKit          2D

 49 54  0  0  0  0  0  0  0  0999 V2000
    6.6511    6.8944    0.0000 C   0  0  0  0  0  0  0  0  0  0  0  0
    5.6869    5.7453    0.0000 C   0  0  0  0  0  0  0  0  0  0  0  0
    4.7228    4.5963    0.0000 C   0  0  0  0  0  0  0  0  0  0  0  0
    3.7586    3.4472    0.0000 C   0  0  0  0  0  0  0  0  0  0  0  0
    2.7944    2.2981    0.0000 C   0  0  0  0  0  0  0  0  0  0  0  0
    1.8302    1.1491    0.0000 C   0  0  0  0  0  0  0  0  0  0  0  0
    0.8660    0.0000    0.0000 C   0  0  0  0  0  0  0  0  0  0  0  0
   -0.4330    0.7500    0.0000 C   0  0  0  0  0  0  0  0  0  0  0  0
   -1.9330    0.7500    0.0000 C   0  0  0  0  0  0  0  0  0  0  0  0
   -1.9330   -0.7500    0.0000 C   0  0  0  0  0  0  0  0  0  0  0  0
   -1.9330   -2.2500    0.0000 C   0  0  0  0  0  0  0  0  0  0  0  0
   -3.4330   -0.7500    0.0000 N   0  0  0  0  0  0  0  0  0  0  0  0
   -4.7321    0.0000    0.0000 C   0  0  0  0  0  0  0  0  0  0  0  0
   -6.0311   -0.7500    0.0000 C   0  0  0  0  0  0  0  0  0  0  0  0
   -7.3301    0.0000    0.0000 C   0  0  0  0  0  0  0  0  0  0  0  0
   -8.8073    0.2605    0.0000 N   0  0  0  0  0  0  0  0  0  0  0  0
   -8.2943   -1.1491    0.0000 C   0  0  0  0  0  0  0  0  0  0  0  0
   -9.5933   -1.8991    0.0000 N   0  0  0  0  0  0  0  0  0  0  0  0
   -7.3301   -2.2981    0.0000 O   0  0  0  0  0  0  0  0  0  0  0  0
   -6.0311   -2.2500    0.0000 O   0  0  0  0  0  0  0  0  0  0  0  0
   -4.7321   -1.5000    0.0000 C   0  0  0  0  0  0  0  0  0  0  0  0
   -0.4330   -0.7500    0.0000 C   0  0  0  0  0  0  0  0  0  0  0  0
    7.6153    8.0435    0.0000 H   0  0  0  0  0  0  0  0  0  0  0  0
    7.8002    5.9302    0.0000 H   0  0  0  0  0  0  0  0  0  0  0  0
    5.5020    7.8586    0.0000 H   0  0  0  0  0  0  0  0  0  0  0  0
    6.8360    4.7812    0.0000 H   0  0  0  0  0  0  0  0  0  0  0  0
    4.5379    6.7095    0.0000 H   0  0  0  0  0  0  0  0  0  0  0  0
    3.5737    5.5604    0.0000 H   0  0  0  0  0  0  0  0  0  0  0  0
    5.8718    3.6321    0.0000 H   0  0  0  0  0  0  0  0  0  0  0  0
    4.9076    2.4830    0.0000 H   0  0  0  0  0  0  0  0  0  0  0  0
    2.6095    4.4114    0.0000 H   0  0  0  0  0  0  0  0  0  0  0  0
    1.6453    3.2623    0.0000 H   0  0  0  0  0  0  0  0  0  0  0  0
    3.9435    1.3340    0.0000 H   0  0  0  0  0  0  0  0  0  0  0  0
    0.8072    2.2461    0.0000 H   0  0  0  0  0  0  0  0  0  0  0  0
    2.9793    0.1849    0.0000 H   0  0  0  0  0  0  0  0  0  0  0  0
    1.8302   -1.1491    0.0000 H   0  0  0  0  0  0  0  0  0  0  0  0
   -0.2243    2.2354    0.0000 H   0  0  0  0  0  0  0  0  0  0  0  0
   -3.4330    0.7500    0.0000 H   0  0  0  0  0  0  0  0  0  0  0  0
   -1.9330    2.2500    0.0000 H   0  0  0  0  0  0  0  0  0  0  0  0
   -1.9330   -3.7500    0.0000 H   0  0  0  0  0  0  0  0  0  0  0  0
   -3.4330   -2.2500    0.0000 H   0  0  0  0  0  0  0  0  0  0  0  0
   -0.7271   -2.3981    0.0000 H   0  0  0  0  0  0  0  0  0  0  0  0
   -4.7321    1.5000    0.0000 H   0  0  0  0  0  0  0  0  0  0  0  0
   -6.8171    1.4095    0.0000 H   0  0  0  0  0  0  0  0  0  0  0  0
   -9.9564    1.2247    0.0000 H   0  0  0  0  0  0  0  0  0  0  0  0
   -9.5933   -3.3991    0.0000 H   0  0  0  0  0  0  0  0  0  0  0  0
  -10.8924   -1.1491    0.0000 H   0  0  0  0  0  0  0  0  0  0  0  0
   -7.8432   -3.7077    0.0000 H   0  0  0  0  0  0  0  0  0  0  0  0
    0.0222   -1.8765    0.0000 H   0  0  0  0  0  0  0  0  0  0  0  0
  1  2  1  0
  2  3  1  0
  3  4  1  0
  4  5  1  0
  5  6  1  0
  6  7  1  0
  7  8  1  0
  8  9  1  0
  9 10  1  0
 10 11  1  1
 10 12  1  0
 12 13  1  0
 13 14  1  0
 14 15  1  0
 15 16  1  0
 16 17  1  0
 17 18  1  0
 17 19  1  1
 14 20  1  1
 21 20  1  6
 10 22  1  0
 22  7  1  0
 22  8  1  0
 21 12  1  0
 21 13  1  0
 21 14  1  0
 17 15  1  0
  1 23  1  0
  1 24  1  0
  1 25  1  0
  2 26  1  0
  2 27  1  0
  3 28  1  0
  3 29  1  0
  4 30  1  0
  4 31  1  0
  5 32  1  0
  5 33  1  0
  6 34  1  0
  6 35  1  0
  7 36  1  6
  8 37  1  6
  9 38  1  0
  9 39  1  0
 11 40  1  0
 11 41  1  0
 11 42  1  0
 13 43  1  6
 15 44  1  1
 16 45  1  0
 18 46  1  0
 18 47  1  0
 19 48  1  0
 22 49  1  6
M  END
$$$$
