
     RDKit          2D

 29 31  0  0  0  0  0  0  0  0999 V2000
    2.5607    0.0000    0.0000 O   0  0  0  0  0  0  0  0  0  0  0  0
    1.0607    0.0000    0.0000 C   0  0  0  0  0  0  0  0  0  0  0  0
   -0.0000   -1.0607    0.0000 O   0  0  0  0  0  0  0  0  0  0  0  0
   -1.0607    0.0000    0.0000 C   0  0  0  0  0  0  0  0  0  0  0  0
   -2.1213   -1.0607    0.0000 C   0  0  0  0  0  0  0  0  0  0  0  0
   -2.7552   -2.4201    0.0000 C   0  0  0  0  0  0  0  0  0  0  0  0
   -1.2610   -2.2894    0.0000 C   0  0  0  0  0  0  0  0  0  0  0  0
    0.0000    1.0607    0.0000 C   0  0  0  0  0  0  0  0  0  0  0  0
   -1.0607    2.1213    0.0000 C   0  0  0  0  0  0  0  0  0  0  0  0
   -2.1213    3.1820    0.0000 C   0  0  0  0  0  0  0  0  0  0  0  0
   -3.1820    4.2426    0.0000 C   0  0  0  0  0  0  0  0  0  0  0  0
   -3.8159    5.6021    0.0000 C   0  0  0  0  0  0  0  0  0  0  0  0
   -2.3216    5.4714    0.0000 C   0  0  0  0  0  0  0  0  0  0  0  0
   -1.7586    0.5453    0.0000 H   0  0  0  0  0  0  0  0  0  0  0  0
   -3.3500   -0.2003    0.0000 H   0  0  0  0  0  0  0  0  0  0  0  0
   -4.2041   -2.0319    0.0000 H   0  0  0  0  0  0  0  0  0  0  0  0
   -2.8860   -3.9144    0.0000 H   0  0  0  0  0  0  0  0  0  0  0  0
   -0.8727   -3.7383    0.0000 H   0  0  0  0  0  0  0  0  0  0  0  0
    0.2115   -2.0033    0.0000 H   0  0  0  0  0  0  0  0  0  0  0  0
    1.0607    2.1213    0.0000 H   0  0  0  0  0  0  0  0  0  0  0  0
   -0.0000    3.1820    0.0000 H   0  0  0  0  0  0  0  0  0  0  0  0
   -1.7586    1.5760    0.0000 H   0  0  0  0  0  0  0  0  0  0  0  0
   -1.0575    4.0131    0.0000 H   0  0  0  0  0  0  0  0  0  0  0  0
   -3.1820    2.1213    0.0000 H   0  0  0  0  0  0  0  0  0  0  0  0
   -4.4107    3.3823    0.0000 H   0  0  0  0  0  0  0  0  0  0  0  0
   -5.2648    5.2139    0.0000 H   0  0  0  0  0  0  0  0  0  0  0  0
   -3.9466    7.0964    0.0000 H   0  0  0  0  0  0  0  0  0  0  0  0
   -1.9334    6.9203    0.0000 H   0  0  0  0  0  0  0  0  0  0  0  0
   -1.0377    5.0542    0.0000 H   0  0  0  0  0  0  0  0  0  0  0  0
  1  2  2  0
  2  3  1  0
  3  4  1  0
  4  5  1  0
  5  6  1  0
  6  7  1  0
  4  8  1  0
  8  9  1  0
  9 10  1  0
 10 11  1  0
 11 12  1  0
 12 13  1  0
  8  2  1  0
 13 11  1  0
  7  5  1  0
  4 14  1  6
  5 15  1  0
  6 16  1  0
  6 17  1  0
  7 18  1  0
  7 19  1  0
  8 20  1  1
  9 21  1  0
  9 22  1  0
 10 23  1  0
 10 24  1  0
 11 25  1  0
 12 26  1  0
 12 27  1  0
 13 28  1  0
 13 29  1  0
M  END
$$$$
