
     RDKit          2D

 60 70  0  0  0  0  0  0  0  0999 V2000
  -15.1449   -1.4013    0.0000 O   0  0  0  0  0  0  0  0  0  0  0  0
  -13.7172   -0.9413    0.0000 C   0  0  0  0  0  0  0  0  0  0  0  0
  -13.0163   -2.2675    0.0000 C   0  0  0  0  0  0  0  0  0  0  0  0
  -12.2182   -0.9974    0.0000 N   0  0  0  0  0  0  0  0  0  0  0  0
  -10.8921   -0.2965    0.0000 C   0  0  0  0  0  0  0  0  0  0  0  0
   -9.5659    0.4044    0.0000 C   0  0  0  0  0  0  0  0  0  0  0  0
   -8.2397    1.1053    0.0000 C   0  0  0  0  0  0  0  0  0  0  0  0
   -6.9135    1.8062    0.0000 C   0  0  0  0  0  0  0  0  0  0  0  0
   -6.0594    4.5753    0.0000 C   0  0  0  0  0  0  0  0  0  0  0  0
   -4.7893    3.7772    0.0000 C   0  0  0  0  0  0  0  0  0  0  0  0
   -6.1155    3.0763    0.0000 C   0  0  0  0  0  0  0  0  0  0  0  0
   -5.4146    1.7501    0.0000 C   0  0  0  0  0  0  0  0  0  0  0  0
   -4.0884    2.4510    0.0000 C   0  0  0  0  0  0  0  0  0  0  0  0
   -2.6260    2.7848    0.0000 C   0  0  0  0  0  0  0  0  0  0  0  0
   -1.5264    3.8051    0.0000 C   0  0  0  0  0  0  0  0  0  0  0  0
   -0.5062    2.7055    0.0000 O   0  0  0  0  0  0  0  0  0  0  0  0
   -1.6058    1.6852    0.0000 C   0  0  0  0  0  0  0  0  0  0  0  0
   -0.4330    0.7500    0.0000 C   0  0  0  0  0  0  0  0  0  0  0  0
    0.8660    0.0000    0.0000 O   0  0  0  0  0  0  0  0  0  0  0  0
   -0.4330   -0.7500    0.0000 C   0  0  0  0  0  0  0  0  0  0  0  0
   -1.6058   -1.6852    0.0000 C   0  0  0  0  0  0  0  0  0  0  0  0
   -3.0682   -1.3515    0.0000 C   0  0  0  0  0  0  0  0  0  0  0  0
   -3.0682   -2.8515    0.0000 C   0  0  0  0  0  0  0  0  0  0  0  0
   -3.0682   -4.3515    0.0000 C   0  0  0  0  0  0  0  0  0  0  0  0
   -4.5682   -4.3515    0.0000 C   0  0  0  0  0  0  0  0  0  0  0  0
   -4.5682   -5.8515    0.0000 C   0  0  0  0  0  0  0  0  0  0  0  0
   -3.0682   -5.8515    0.0000 C   0  0  0  0  0  0  0  0  0  0  0  0
   -3.7190    0.0000    0.0000 C   0  0  0  0  0  0  0  0  0  0  0  0
   -3.0682    1.3515    0.0000 C   0  0  0  0  0  0  0  0  0  0  0  0
  -16.2571   -0.3948    0.0000 H   0  0  0  0  0  0  0  0  0  0  0  0
  -13.9222    0.5446    0.0000 H   0  0  0  0  0  0  0  0  0  0  0  0
  -11.9041   -3.2740    0.0000 H   0  0  0  0  0  0  0  0  0  0  0  0
  -14.2006   -3.1880    0.0000 H   0  0  0  0  0  0  0  0  0  0  0  0
  -11.5930    1.0297    0.0000 H   0  0  0  0  0  0  0  0  0  0  0  0
  -10.1912   -1.6227    0.0000 H   0  0  0  0  0  0  0  0  0  0  0  0
  -10.2668    1.7306    0.0000 H   0  0  0  0  0  0  0  0  0  0  0  0
   -8.8650   -0.9218    0.0000 H   0  0  0  0  0  0  0  0  0  0  0  0
   -7.5388   -0.2209    0.0000 H   0  0  0  0  0  0  0  0  0  0  0  0
   -8.9406    2.4315    0.0000 H   0  0  0  0  0  0  0  0  0  0  0  0
   -6.7603    5.9014    0.0000 H   0  0  0  0  0  0  0  0  0  0  0  0
   -3.6897    4.7975    0.0000 H   0  0  0  0  0  0  0  0  0  0  0  0
   -5.2616    0.2580    0.0000 H   0  0  0  0  0  0  0  0  0  0  0  0
   -0.4269    4.8253    0.0000 H   0  0  0  0  0  0  0  0  0  0  0  0
   -2.5467    4.9046    0.0000 H   0  0  0  0  0  0  0  0  0  0  0  0
    0.4120    1.9894    0.0000 H   0  0  0  0  0  0  0  0  0  0  0  0
    0.4120   -1.9894    0.0000 H   0  0  0  0  0  0  0  0  0  0  0  0
   -0.4330   -2.6205    0.0000 H   0  0  0  0  0  0  0  0  0  0  0  0
   -1.8615   -2.4403    0.0000 H   0  0  0  0  0  0  0  0  0  0  0  0
   -4.2109   -1.7642    0.0000 H   0  0  0  0  0  0  0  0  0  0  0  0
   -4.2741   -2.7033    0.0000 H   0  0  0  0  0  0  0  0  0  0  0  0
   -2.2769   -2.9486    0.0000 H   0  0  0  0  0  0  0  0  0  0  0  0
   -1.5682   -4.3515    0.0000 H   0  0  0  0  0  0  0  0  0  0  0  0
   -6.0682   -4.3515    0.0000 H   0  0  0  0  0  0  0  0  0  0  0  0
   -4.7510   -2.8626    0.0000 H   0  0  0  0  0  0  0  0  0  0  0  0
   -4.5682   -7.3515    0.0000 H   0  0  0  0  0  0  0  0  0  0  0  0
   -6.0682   -5.8515    0.0000 H   0  0  0  0  0  0  0  0  0  0  0  0
   -1.5682   -5.8515    0.0000 H   0  0  0  0  0  0  0  0  0  0  0  0
   -3.0682   -7.3515    0.0000 H   0  0  0  0  0  0  0  0  0  0  0  0
   -4.9970   -0.7853    0.0000 H   0  0  0  0  0  0  0  0  0  0  0  0
   -4.9970    0.7853    0.0000 H   0  0  0  0  0  0  0  0  0  0  0  0
  1  2  1  0
  2  3  1  0
  3  4  1  0
  4  5  1  0
  5  6  1  0
  6  7  1  0
  7  8  1  0
  8  9  1  0
  9 10  1  0
 10 11  1  0
 11 12  1  0
 12 13  1  0
 13 14  1  0
 14 15  1  0
 15 16  1  0
 16 17  1  0
 17 18  1  0
 18 19  1  0
 19 20  1  0
 20 21  1  0
 21 22  1  0
 22 23  1  0
 23 24  1  0
 24 25  1  0
 25 26  1  0
 26 27  1  0
 22 28  1  0
 28 29  1  0
  4  2  1  0
 11  8  1  0
 29 13  1  0
 12  8  1  0
 17 14  1  0
 20 18  1  0
 27 24  1  0
 11  9  1  0
 29 14  1  0
 13 10  1  0
 29 17  1  0
  1 30  1  0
  2 31  1  0
  3 32  1  0
  3 33  1  0
  5 34  1  0
  5 35  1  0
  6 36  1  0
  6 37  1  0
  7 38  1  0
  7 39  1  0
  9 40  1  0
 10 41  1  0
 12 42  1  0
 15 43  1  0
 15 44  1  0
 18 45  1  0
 20 46  1  0
 21 47  1  0
 21 48  1  0
 22 49  1  0
 23 50  1  0
 23 51  1  0
 24 52  1  0
 25 53  1  0
 25 54  1  0
 26 55  1  0
 26 56  1  0
 27 57  1  0
 27 58  1  0
 28 59  1  0
 28 60  1  0
M  END
$$$$
