
     RDKit          2D

 54 61  0  0  0  0  0  0  0  0999 V2000
  -11.3813   -6.7224    0.0000 C   0  0  0  0  0  0  0  0  0  0  0  0
   -9.9041   -6.4619    0.0000 C   0  0  0  0  0  0  0  0  0  0  0  0
   -8.4269   -6.2014    0.0000 C   0  0  0  0  0  0  0  0  0  0  0  0
   -6.9497   -5.9410    0.0000 C   0  0  0  0  0  0  0  0  0  0  0  0
   -5.4725   -5.6805    0.0000 C   0  0  0  0  0  0  0  0  0  0  0  0
   -3.9953   -5.4200    0.0000 C   0  0  0  0  0  0  0  0  0  0  0  0
   -2.5181   -5.1595    0.0000 C   0  0  0  0  0  0  0  0  0  0  0  0
   -2.5181   -3.6595    0.0000 C   0  0  0  0  0  0  0  0  0  0  0  0
   -1.2190   -4.4095    0.0000 C   0  0  0  0  0  0  0  0  0  0  0  0
   -1.2190   -2.9095    0.0000 C   0  0  0  0  0  0  0  0  0  0  0  0
    0.2582   -2.6491    0.0000 N   0  0  0  0  0  0  0  0  0  0  0  0
    1.2224   -3.7981    0.0000 C   0  0  0  0  0  0  0  0  0  0  0  0
    2.1866   -4.9472    0.0000 N   0  0  0  0  0  2  0  0  0  0  0  0
    2.3714   -2.8340    0.0000 S   0  0  0  0  0  1  0  0  0  0  0  0
   -1.7321   -1.5000    0.0000 C   0  0  0  0  0  0  0  0  0  0  0  0
   -1.7321    0.0000    0.0000 N   0  0  0  0  0  0  0  0  0  0  0  0
   -0.4330    0.7500    0.0000 C   0  0  0  0  0  0  0  0  0  0  0  0
    0.8660    0.0000    0.0000 C   0  0  0  0  0  0  0  0  0  0  0  0
   -0.4330   -0.7500    0.0000 C   0  0  0  0  0  0  0  0  0  0  0  0
   -5.2120   -7.1577    0.0000 N   0  0  0  0  0  0  0  0  0  0  0  0
   -4.2478   -8.3068    0.0000 C   0  0  0  0  0  0  0  0  0  0  0  0
   -5.7250   -8.5672    0.0000 C   0  0  0  0  0  0  0  0  0  0  0  0
   -5.7250  -10.0672    0.0000 N   0  0  0  0  0  0  0  0  0  0  0  0
   -4.9750  -11.3663    0.0000 C   0  0  0  0  0  0  0  0  0  0  0  0
   -5.7250  -12.6653    0.0000 N   0  0  0  0  0  0  0  0  0  0  0  0
   -6.4750  -11.3663    0.0000 C   0  0  0  0  0  0  0  0  0  0  0  0
  -12.8585   -6.9828    0.0000 H   0  0  0  0  0  0  0  0  0  0  0  0
  -11.1209   -8.1996    0.0000 H   0  0  0  0  0  0  0  0  0  0  0  0
  -11.6418   -5.2452    0.0000 H   0  0  0  0  0  0  0  0  0  0  0  0
   -9.6436   -7.9391    0.0000 H   0  0  0  0  0  0  0  0  0  0  0  0
  -10.1646   -4.9847    0.0000 H   0  0  0  0  0  0  0  0  0  0  0  0
   -8.1664   -7.6786    0.0000 H   0  0  0  0  0  0  0  0  0  0  0  0
   -8.6874   -4.7242    0.0000 H   0  0  0  0  0  0  0  0  0  0  0  0
   -7.2102   -4.4637    0.0000 H   0  0  0  0  0  0  0  0  0  0  0  0
   -6.6892   -7.4182    0.0000 H   0  0  0  0  0  0  0  0  0  0  0  0
   -5.7330   -4.2033    0.0000 H   0  0  0  0  0  0  0  0  0  0  0  0
   -4.2557   -3.9428    0.0000 H   0  0  0  0  0  0  0  0  0  0  0  0
   -3.7348   -6.8972    0.0000 H   0  0  0  0  0  0  0  0  0  0  0  0
   -2.0050   -6.5691    0.0000 H   0  0  0  0  0  0  0  0  0  0  0  0
   -3.8171   -2.9095    0.0000 H   0  0  0  0  0  0  0  0  0  0  0  0
   -0.3457   -5.0676    0.0000 H   0  0  0  0  0  0  0  0  0  0  0  0
    0.7712   -1.2395    0.0000 H   0  0  0  0  0  0  0  0  0  0  0  0
    0.4766   -4.5979    0.0000 H   0  0  0  0  0  0  0  0  0  0  0  0
    3.6638   -4.6867    0.0000 H   0  0  0  0  0  0  0  0  0  0  0  0
   -3.2093   -1.7605    0.0000 H   0  0  0  0  0  0  0  0  0  0  0  0
   -0.4330    2.2500    0.0000 H   0  0  0  0  0  0  0  0  0  0  0  0
    1.8302    1.1491    0.0000 H   0  0  0  0  0  0  0  0  0  0  0  0
    1.8302   -1.1491    0.0000 H   0  0  0  0  0  0  0  0  0  0  0  0
   -2.9488   -7.5568    0.0000 H   0  0  0  0  0  0  0  0  0  0  0  0
   -3.7348   -9.7163    0.0000 H   0  0  0  0  0  0  0  0  0  0  0  0
   -7.2023   -8.3068    0.0000 H   0  0  0  0  0  0  0  0  0  0  0  0
   -3.4750  -11.3663    0.0000 H   0  0  0  0  0  0  0  0  0  0  0  0
   -5.7250  -14.1653    0.0000 H   0  0  0  0  0  0  0  0  0  0  0  0
   -7.9750  -11.3663    0.0000 H   0  0  0  0  0  0  0  0  0  0  0  0
  1  2  1  0
  2  3  1  0
  3  4  1  0
  4  5  1  0
  5  6  1  0
  6  7  1  0
  7  8  1  0
  8  9  1  0
  9 10  1  0
 10 11  1  0
 11 12  1  0
 12 13  1  0
 12 14  1  0
 10 15  1  0
 15 16  1  0
 16 17  1  0
 17 18  1  0
 18 19  1  0
  5 20  1  0
 20 21  1  0
 21 22  1  0
 22 23  1  0
 23 24  1  0
 24 25  1  0
 25 26  1  0
  9  7  1  0
 19 15  1  0
 22 20  1  0
 26 23  1  0
 10  8  1  0
 19 16  1  0
 26 24  1  0
 19 17  1  0
  1 27  1  0
  1 28  1  0
  1 29  1  0
  2 30  1  0
  2 31  1  0
  3 32  1  0
  3 33  1  0
  4 34  1  0
  4 35  1  0
  5 36  1  0
  6 37  1  0
  6 38  1  0
  7 39  1  0
  8 40  1  0
  9 41  1  0
 11 42  1  0
 12 43  1  0
 13 44  1  0
 15 45  1  0
 17 46  1  0
 18 47  1  0
 18 48  1  0
 21 49  1  0
 21 50  1  0
 22 51  1  0
 24 52  1  0
 25 53  1  0
 26 54  1  0
M  RAD  2  13   2  14   2
M  END
$$$$
