
     RDKit          2D

 57 61  0  0  0  0  0  0  0  0999 V2000
    3.4641   -3.0000    0.0000 C   0  0  0  0  0  0  0  0  0  0  0  0
    3.4641   -1.5000    0.0000 O   0  0  0  0  0  0  0  0  0  0  0  0
    2.1651   -0.7500    0.0000 C   0  0  0  0  0  0  0  0  0  0  0  0
    0.8660   -0.0000    0.0000 C   0  0  0  0  0  0  0  0  0  0  0  0
   -0.4330    0.7500    0.0000 C   0  0  0  0  0  0  0  0  0  0  0  0
    0.0800    2.1595    0.0000 C   0  0  0  0  0  0  0  0  0  0  0  0
    0.0800    3.6595    0.0000 C   0  0  0  0  0  0  0  0  0  0  0  0
   -1.2190    2.9095    0.0000 C   0  0  0  0  0  0  0  0  0  0  0  0
   -2.1832    4.0586    0.0000 C   0  0  0  0  0  0  0  0  0  0  0  0
   -3.1474    5.2077    0.0000 C   0  0  0  0  0  0  0  0  0  0  0  0
   -4.1116    6.3567    0.0000 C   0  0  0  0  0  0  0  0  0  0  0  0
   -4.6246    7.7663    0.0000 C   0  0  0  0  0  0  0  0  0  0  0  0
   -3.1474    7.5058    0.0000 C   0  0  0  0  0  0  0  0  0  0  0  0
   -2.6344    8.9153    0.0000 N   0  0  0  0  0  0  0  0  0  0  0  0
   -2.8948   10.3926    0.0000 C   0  0  0  0  0  0  0  0  0  0  0  0
   -1.4853    9.8795    0.0000 C   0  0  0  0  0  0  0  0  0  0  0  0
   -0.7353   11.1786    0.0000 C   0  0  0  0  0  0  0  0  0  0  0  0
    0.0147   12.4776    0.0000 C   0  0  0  0  0  0  0  0  0  0  0  0
    0.7647   13.7766    0.0000 N   0  0  0  0  0  0  0  0  0  0  0  0
   -1.9102    1.0105    0.0000 C   0  0  0  0  0  0  0  0  0  0  0  0
   -1.3972   -0.3991    0.0000 C   0  0  0  0  0  0  0  0  0  0  0  0
   -2.3614   -1.5481    0.0000 C   0  0  0  0  0  0  0  0  0  0  0  0
   -0.8842   -1.8086    0.0000 C   0  0  0  0  0  0  0  0  0  0  0  0
    3.4641   -4.5000    0.0000 H   0  0  0  0  0  0  0  0  0  0  0  0
    4.9641   -3.0000    0.0000 H   0  0  0  0  0  0  0  0  0  0  0  0
    1.9641   -3.0000    0.0000 H   0  0  0  0  0  0  0  0  0  0  0  0
    1.4151   -2.0490    0.0000 H   0  0  0  0  0  0  0  0  0  0  0  0
    2.9151    0.5490    0.0000 H   0  0  0  0  0  0  0  0  0  0  0  0
    1.6785    1.0781    0.0000 H   0  0  0  0  0  0  0  0  0  0  0  0
    0.2800   -1.3808    0.0000 H   0  0  0  0  0  0  0  0  0  0  0  0
    1.4282    2.0889    0.0000 H   0  0  0  0  0  0  0  0  0  0  0  0
    1.5572    3.9200    0.0000 H   0  0  0  0  0  0  0  0  0  0  0  0
   -0.2236    4.9749    0.0000 H   0  0  0  0  0  0  0  0  0  0  0  0
   -1.8020    2.3659    0.0000 H   0  0  0  0  0  0  0  0  0  0  0  0
   -1.2625    5.0460    0.0000 H   0  0  0  0  0  0  0  0  0  0  0  0
   -3.3323    3.0944    0.0000 H   0  0  0  0  0  0  0  0  0  0  0  0
   -4.2965    4.2435    0.0000 H   0  0  0  0  0  0  0  0  0  0  0  0
   -2.0152    5.9429    0.0000 H   0  0  0  0  0  0  0  0  0  0  0  0
   -5.4106    5.6067    0.0000 H   0  0  0  0  0  0  0  0  0  0  0  0
   -6.1018    7.5058    0.0000 H   0  0  0  0  0  0  0  0  0  0  0  0
   -4.6246    9.2663    0.0000 H   0  0  0  0  0  0  0  0  0  0  0  0
   -1.9047    6.9784    0.0000 H   0  0  0  0  0  0  0  0  0  0  0  0
   -4.3948   10.3926    0.0000 H   0  0  0  0  0  0  0  0  0  0  0  0
   -2.8242   11.7407    0.0000 H   0  0  0  0  0  0  0  0  0  0  0  0
   -0.3362    8.9153    0.0000 H   0  0  0  0  0  0  0  0  0  0  0  0
    0.5638   10.4286    0.0000 H   0  0  0  0  0  0  0  0  0  0  0  0
   -1.8134   11.9910    0.0000 H   0  0  0  0  0  0  0  0  0  0  0  0
    1.3138   11.7276    0.0000 H   0  0  0  0  0  0  0  0  0  0  0  0
   -1.2843   13.2276    0.0000 H   0  0  0  0  0  0  0  0  0  0  0  0
    0.0147   15.0757    0.0000 H   0  0  0  0  0  0  0  0  0  0  0  0
    2.2647   13.7766    0.0000 H   0  0  0  0  0  0  0  0  0  0  0  0
   -2.0074    1.8017    0.0000 H   0  0  0  0  0  0  0  0  0  0  0  0
   -3.3874    0.7500    0.0000 H   0  0  0  0  0  0  0  0  0  0  0  0
   -3.6604   -0.7981    0.0000 H   0  0  0  0  0  0  0  0  0  0  0  0
   -2.8744   -2.9577    0.0000 H   0  0  0  0  0  0  0  0  0  0  0  0
   -0.8842   -3.3086    0.0000 H   0  0  0  0  0  0  0  0  0  0  0  0
    0.6138   -1.7301    0.0000 H   0  0  0  0  0  0  0  0  0  0  0  0
  1  2  1  0
  2  3  1  0
  3  4  1  0
  4  5  1  0
  5  6  1  0
  6  7  1  0
  7  8  1  0
  8  9  1  0
  9 10  1  0
 10 11  1  0
 11 12  1  0
 12 13  1  0
 13 14  1  0
 14 15  1  0
 15 16  1  0
 16 17  1  0
 17 18  1  0
 18 19  1  0
  5 20  1  0
 20 21  1  0
 21 22  1  0
 22 23  1  0
 21  5  1  0
  8  6  1  0
 13 11  1  0
 16 14  1  0
 23 21  1  0
  1 24  1  0
  1 25  1  0
  1 26  1  0
  3 27  1  0
  3 28  1  0
  4 29  1  0
  4 30  1  0
  6 31  1  0
  7 32  1  0
  7 33  1  0
  8 34  1  0
  9 35  1  0
  9 36  1  0
 10 37  1  0
 10 38  1  0
 11 39  1  0
 12 40  1  0
 12 41  1  0
 13 42  1  0
 15 43  1  0
 15 44  1  0
 16 45  1  0
 17 46  1  0
 17 47  1  0
 18 48  1  0
 18 49  1  0
 19 50  1  0
 19 51  1  0
 20 52  1  0
 20 53  1  0
 22 54  1  0
 22 55  1  0
 23 56  1  0
 23 57  1  0
M  END
$$$$
