
     RDKit          2D

 61 68  0  0  0  0  0  0  0  0999 V2000
  -14.0116   -6.0188    0.0000 C   0  0  0  0  0  0  0  0  0  0  0  0
  -12.8529   -5.0662    0.0000 C   0  0  0  0  0  0  0  0  0  0  0  0
  -11.6943   -4.1135    0.0000 C   0  0  0  0  0  0  0  0  0  0  0  0
  -10.7416   -5.2721    0.0000 O   0  0  0  0  0  0  0  0  0  0  0  0
  -11.2687   -6.6765    0.0000 Br  0  0  0  0  0  0  0  0  0  0  0  0
  -10.5357   -3.1608    0.0000 C   0  0  0  0  0  0  0  0  0  0  0  0
  -11.6042   -2.1081    0.0000 C   0  0  0  0  0  0  0  0  0  0  0  0
  -12.8683   -1.3006    0.0000 C   0  0  0  0  0  0  0  0  0  0  0  0
  -10.9333   -0.7665    0.0000 C   0  0  0  0  0  0  0  0  0  0  0  0
   -9.4500   -0.9901    0.0000 C   0  0  0  0  0  0  0  0  0  0  0  0
   -9.2043   -2.4698    0.0000 C   0  0  0  0  0  0  0  0  0  0  0  0
   -8.6563   -3.8662    0.0000 C   0  0  0  0  0  0  0  0  0  0  0  0
   -7.6638   -4.9908    0.0000 C   0  0  0  0  0  0  0  0  0  0  0  0
   -7.1860   -3.5689    0.0000 C   0  0  0  0  0  0  0  0  0  0  0  0
   -5.7028   -3.7925    0.0000 C   0  0  0  0  0  0  0  0  0  0  0  0
   -4.4634   -4.6375    0.0000 C   0  0  0  0  0  0  0  0  0  0  0  0
   -3.0301   -4.1953    0.0000 C   0  0  0  0  0  0  0  0  0  0  0  0
   -2.4821   -2.7990    0.0000 C   0  0  0  0  0  0  0  0  0  0  0  0
   -1.3451   -3.7775    0.0000 C   0  0  0  0  0  0  0  0  0  0  0  0
   -1.1830   -2.0490    0.0000 C   0  0  0  0  0  0  0  0  0  0  0  0
   -1.9330   -0.7500    0.0000 C   0  0  0  0  0  0  0  0  0  0  0  0
   -1.9330    0.7500    0.0000 C   0  0  0  0  0  0  0  0  0  0  0  0
   -0.4330    0.7500    0.0000 C   0  0  0  0  0  0  0  0  0  0  0  0
    0.8660    0.0000    0.0000 C   0  0  0  0  0  0  0  0  0  0  0  0
   -0.4330   -0.7500    0.0000 C   0  0  0  0  0  0  0  0  0  0  0  0
   -3.2321   -1.5000    0.0000 C   0  0  0  0  0  0  0  0  0  0  0  0
   -4.7153   -1.2764    0.0000 C   0  0  0  0  0  0  0  0  0  0  0  0
   -5.8149   -2.2967    0.0000 C   0  0  0  0  0  0  0  0  0  0  0  0
  -15.1702   -6.9715    0.0000 H   0  0  0  0  0  0  0  0  0  0  0  0
  -12.2719   -3.5640    0.0000 H   0  0  0  0  0  0  0  0  0  0  0  0
   -9.8681   -4.5041    0.0000 H   0  0  0  0  0  0  0  0  0  0  0  0
  -12.1735   -2.6661    0.0000 H   0  0  0  0  0  0  0  0  0  0  0  0
  -14.1324   -0.4931    0.0000 H   0  0  0  0  0  0  0  0  0  0  0  0
  -13.6758   -2.5647    0.0000 H   0  0  0  0  0  0  0  0  0  0  0  0
  -12.2209    0.0525    0.0000 H   0  0  0  0  0  0  0  0  0  0  0  0
  -10.5559    0.6852    0.0000 H   0  0  0  0  0  0  0  0  0  0  0  0
  -12.2629   -0.0722    0.0000 H   0  0  0  0  0  0  0  0  0  0  0  0
   -7.9527   -0.9004    0.0000 H   0  0  0  0  0  0  0  0  0  0  0  0
   -9.3827    0.5084    0.0000 H   0  0  0  0  0  0  0  0  0  0  0  0
   -7.7584   -2.0708    0.0000 H   0  0  0  0  0  0  0  0  0  0  0  0
   -9.8313   -4.7985    0.0000 H   0  0  0  0  0  0  0  0  0  0  0  0
   -8.5990   -6.1636    0.0000 H   0  0  0  0  0  0  0  0  0  0  0  0
   -6.5592   -6.0057    0.0000 H   0  0  0  0  0  0  0  0  0  0  0  0
   -7.2234   -2.0694    0.0000 H   0  0  0  0  0  0  0  0  0  0  0  0
   -6.2508   -5.1888    0.0000 H   0  0  0  0  0  0  0  0  0  0  0  0
   -5.2834   -5.8935    0.0000 H   0  0  0  0  0  0  0  0  0  0  0  0
   -3.8774   -6.0183    0.0000 H   0  0  0  0  0  0  0  0  0  0  0  0
   -2.7365   -5.6663    0.0000 H   0  0  0  0  0  0  0  0  0  0  0  0
   -1.6450   -4.7712    0.0000 H   0  0  0  0  0  0  0  0  0  0  0  0
   -0.2081   -4.7559    0.0000 H   0  0  0  0  0  0  0  0  0  0  0  0
   -0.2354   -2.7683    0.0000 H   0  0  0  0  0  0  0  0  0  0  0  0
   -2.3235   -4.9144    0.0000 H   0  0  0  0  0  0  0  0  0  0  0  0
   -0.0010   -2.9725    0.0000 H   0  0  0  0  0  0  0  0  0  0  0  0
   -2.9937    1.8107    0.0000 H   0  0  0  0  0  0  0  0  0  0  0  0
   -0.0448    2.1989    0.0000 H   0  0  0  0  0  0  0  0  0  0  0  0
    1.8302    1.1491    0.0000 H   0  0  0  0  0  0  0  0  0  0  0  0
    1.8302   -1.1491    0.0000 H   0  0  0  0  0  0  0  0  0  0  0  0
   -4.1673    0.1199    0.0000 H   0  0  0  0  0  0  0  0  0  0  0  0
   -5.8424   -0.2867    0.0000 H   0  0  0  0  0  0  0  0  0  0  0  0
   -6.7176   -1.0988    0.0000 H   0  0  0  0  0  0  0  0  0  0  0  0
   -7.2482   -2.7388    0.0000 H   0  0  0  0  0  0  0  0  0  0  0  0
  1  2  3  0
  2  3  1  0
  3  4  1  0
  4  5  1  0
  3  6  1  0
  6  7  1  0
  7  8  1  0
  7  9  1  0
  9 10  1  0
 10 11  1  0
 11 12  1  0
 12 13  1  0
 13 14  1  0
 14 15  1  0
 15 16  1  0
 16 17  1  0
 17 18  1  0
 18 19  1  6
 18 20  1  0
 20 21  1  0
 21 22  1  0
 22 23  1  0
 23 24  1  0
 25 24  1  1
 22 26  1  0
 26 27  1  6
 27 28  1  0
 11  6  1  0
 14 12  1  0
 28 15  1  0
 26 18  1  0
 25 20  1  0
 21 25  1  6
 26 21  1  0
 25 23  1  0
  1 29  1  0
  3 30  1  6
  6 31  1  6
  7 32  1  6
  8 33  1  0
  8 34  1  0
  8 35  1  0
  9 36  1  0
  9 37  1  0
 10 38  1  0
 10 39  1  0
 11 40  1  6
 12 41  1  1
 13 42  1  0
 13 43  1  0
 14 44  1  1
 15 45  1  6
 16 46  1  0
 16 47  1  0
 17 48  1  0
 17 49  1  0
 19 50  1  0
 19 51  1  0
 19 52  1  0
 20 53  1  1
 22 54  1  1
 23 55  1  1
 24 56  1  0
 24 57  1  0
 27 58  1  0
 27 59  1  0
 28 60  1  0
 28 61  1  0
M  END
$$$$
