
     RDKit          2D

113120  0  0  0  0  0  0  0  0999 V2000
    9.9788   -5.4839    0.0000 C   0  0  0  0  0  0  0  0  0  0  0  0
    9.7184   -4.0067    0.0000 C   0  0  0  0  0  0  0  0  0  0  0  0
    9.4579   -2.5295    0.0000 C   0  0  0  0  0  0  0  0  0  0  0  0
    9.1974   -1.0523    0.0000 C   0  0  0  0  0  0  0  0  0  0  0  0
    7.6974   -1.0523    0.0000 C   0  0  0  0  0  0  0  0  0  0  0  0
    8.4474    0.2468    0.0000 C   0  0  0  0  0  0  0  0  0  0  0  0
    6.9474    0.2468    0.0000 C   0  0  0  0  0  0  0  0  0  0  0  0
    6.6869    1.7240    0.0000 C   0  0  0  0  0  0  0  0  0  0  0  0
    5.5379   -0.2663    0.0000 C   0  0  0  0  0  0  0  0  0  0  0  0
    4.3888    0.6979    0.0000 C   0  0  0  0  0  0  0  0  0  0  0  0
    2.9793    0.1849    0.0000 N   0  0  0  0  0  0  0  0  0  0  0  0
    1.8302    1.1491    0.0000 C   0  0  0  0  0  0  0  0  0  0  0  0
    0.8660    0.0000    0.0000 C   0  0  0  0  0  0  0  0  0  0  0  0
   -0.4330    0.7500    0.0000 C   0  0  0  0  0  0  0  0  0  0  0  0
    0.3170    2.0490    0.0000 C   0  0  0  0  0  0  0  0  0  0  0  0
   -0.4330    3.3481    0.0000 C   0  0  0  0  0  0  0  0  0  0  0  0
   -1.9330    3.3481    0.0000 C   0  0  0  0  0  0  0  0  0  0  0  0
   -2.6830    2.0490    0.0000 C   0  0  0  0  0  0  0  0  0  0  0  0
   -1.9330    0.7500    0.0000 C   0  0  0  0  0  0  0  0  0  0  0  0
   -0.4330   -0.7500    0.0000 C   0  0  0  0  0  0  0  0  0  0  0  0
    0.0800   -2.1595    0.0000 C   0  0  0  0  0  0  0  0  0  0  0  0
   -1.9102   -1.0105    0.0000 C   0  0  0  0  0  0  0  0  0  0  0  0
   -1.6498   -2.4877    0.0000 C   0  0  0  0  0  0  0  0  0  0  0  0
   -2.1628   -3.8972    0.0000 C   0  0  0  0  0  0  0  0  0  0  0  0
   -0.8637   -4.6472    0.0000 C   0  0  0  0  0  0  0  0  0  0  0  0
   -0.8637   -6.1472    0.0000 N   0  0  0  0  0  0  0  0  0  0  0  0
    0.4353   -6.8972    0.0000 C   0  0  0  0  0  0  0  0  0  0  0  0
    1.7343   -7.6472    0.0000 C   0  0  0  0  0  0  0  0  0  0  0  0
    2.6985   -8.7963    0.0000 C   0  0  0  0  0  0  0  0  0  0  0  0
    1.2213   -9.0568    0.0000 C   0  0  0  0  0  0  0  0  0  0  0  0
    1.2213  -10.5568    0.0000 C   0  0  0  0  0  0  0  0  0  0  0  0
    1.2213  -12.0568    0.0000 C   0  0  0  0  0  0  0  0  0  0  0  0
   -3.1270   -5.0463    0.0000 O   0  0  0  0  0  0  0  0  0  0  0  0
   -4.6042   -4.7858    0.0000 C   0  0  0  0  0  0  0  0  0  0  0  0
   -3.1270   -2.7482    0.0000 C   0  0  0  0  0  0  0  0  0  0  0  0
   -4.4864   -3.3821    0.0000 C   0  0  0  0  0  0  0  0  0  0  0  0
   -3.3874   -1.2709    0.0000 C   0  0  0  0  0  0  0  0  0  0  0  0
   -4.0214    0.0885    0.0000 C   0  0  0  0  0  0  0  0  0  0  0  0
   -2.7926    0.9489    0.0000 C   0  0  0  0  0  0  0  0  0  0  0  0
   -4.8817   -1.1402    0.0000 C   0  0  0  0  0  0  0  0  0  0  0  0
   -6.2412   -0.5063    0.0000 C   0  0  0  0  0  0  0  0  0  0  0  0
    2.7944    2.2981    0.0000 C   0  0  0  0  0  0  0  0  0  0  0  0
    3.7586    3.4472    0.0000 C   0  0  0  0  0  0  0  0  0  0  0  0
    3.9435    1.3340    0.0000 C   0  0  0  0  0  0  0  0  0  0  0  0
    1.6453    3.2623    0.0000 C   0  0  0  0  0  0  0  0  0  0  0  0
   10.2393   -6.9611    0.0000 H   0  0  0  0  0  0  0  0  0  0  0  0
   11.4560   -5.2234    0.0000 H   0  0  0  0  0  0  0  0  0  0  0  0
    8.5016   -5.7444    0.0000 H   0  0  0  0  0  0  0  0  0  0  0  0
   11.1956   -3.7462    0.0000 H   0  0  0  0  0  0  0  0  0  0  0  0
    8.2412   -4.2672    0.0000 H   0  0  0  0  0  0  0  0  0  0  0  0
    7.9807   -2.7900    0.0000 H   0  0  0  0  0  0  0  0  0  0  0  0
   10.9351   -2.2690    0.0000 H   0  0  0  0  0  0  0  0  0  0  0  0
   10.6070   -0.5392    0.0000 H   0  0  0  0  0  0  0  0  0  0  0  0
    6.9474   -2.3513    0.0000 H   0  0  0  0  0  0  0  0  0  0  0  0
    9.1974    1.5458    0.0000 H   0  0  0  0  0  0  0  0  0  0  0  0
    6.4265    3.2012    0.0000 H   0  0  0  0  0  0  0  0  0  0  0  0
    8.1642    1.9844    0.0000 H   0  0  0  0  0  0  0  0  0  0  0  0
    5.7041    1.6725    0.0000 H   0  0  0  0  0  0  0  0  0  0  0  0
    5.2774   -1.7435    0.0000 H   0  0  0  0  0  0  0  0  0  0  0  0
    4.6219    1.4602    0.0000 H   0  0  0  0  0  0  0  0  0  0  0  0
    2.9008   -1.3131    0.0000 H   0  0  0  0  0  0  0  0  0  0  0  0
    0.8072    2.2461    0.0000 H   0  0  0  0  0  0  0  0  0  0  0  0
    1.8302   -1.1491    0.0000 H   0  0  0  0  0  0  0  0  0  0  0  0
    1.1986    3.2626    0.0000 H   0  0  0  0  0  0  0  0  0  0  0  0
    1.6652    1.3916    0.0000 H   0  0  0  0  0  0  0  0  0  0  0  0
   -0.6935    4.8253    0.0000 H   0  0  0  0  0  0  0  0  0  0  0  0
    0.9035    4.0291    0.0000 H   0  0  0  0  0  0  0  0  0  0  0  0
   -3.3426    3.8611    0.0000 H   0  0  0  0  0  0  0  0  0  0  0  0
   -1.6725    4.8253    0.0000 H   0  0  0  0  0  0  0  0  0  0  0  0
   -3.8321    1.0849    0.0000 H   0  0  0  0  0  0  0  0  0  0  0  0
   -3.7060    3.1461    0.0000 H   0  0  0  0  0  0  0  0  0  0  0  0
   -1.8545   -0.7479    0.0000 H   0  0  0  0  0  0  0  0  0  0  0  0
   -3.4248    0.5933    0.0000 H   0  0  0  0  0  0  0  0  0  0  0  0
    0.7610   -3.4960    0.0000 H   0  0  0  0  0  0  0  0  0  0  0  0
   -1.1635   -2.9984    0.0000 H   0  0  0  0  0  0  0  0  0  0  0  0
    1.5416   -1.8222    0.0000 H   0  0  0  0  0  0  0  0  0  0  0  0
   -1.9887    0.4875    0.0000 H   0  0  0  0  0  0  0  0  0  0  0  0
   -0.2315   -2.9761    0.0000 H   0  0  0  0  0  0  0  0  0  0  0  0
    0.5170   -4.0612    0.0000 H   0  0  0  0  0  0  0  0  0  0  0  0
    1.1853   -5.5982    0.0000 H   0  0  0  0  0  0  0  0  0  0  0  0
   -0.4675   -8.0952    0.0000 H   0  0  0  0  0  0  0  0  0  0  0  0
    2.6985   -6.4982    0.0000 H   0  0  0  0  0  0  0  0  0  0  0  0
    3.9976   -8.0463    0.0000 H   0  0  0  0  0  0  0  0  0  0  0  0
    3.3795  -10.1328    0.0000 H   0  0  0  0  0  0  0  0  0  0  0  0
   -0.2766   -8.9783    0.0000 H   0  0  0  0  0  0  0  0  0  0  0  0
   -0.2787  -10.5568    0.0000 H   0  0  0  0  0  0  0  0  0  0  0  0
    2.7101  -10.7396    0.0000 H   0  0  0  0  0  0  0  0  0  0  0  0
    1.2213  -13.5568    0.0000 H   0  0  0  0  0  0  0  0  0  0  0  0
   -0.2787  -12.0568    0.0000 H   0  0  0  0  0  0  0  0  0  0  0  0
    2.7213  -12.0568    0.0000 H   0  0  0  0  0  0  0  0  0  0  0  0
   -6.1021   -4.7074    0.0000 H   0  0  0  0  0  0  0  0  0  0  0  0
   -4.8646   -6.2630    0.0000 H   0  0  0  0  0  0  0  0  0  0  0  0
   -4.7089   -3.2895    0.0000 H   0  0  0  0  0  0  0  0  0  0  0  0
   -5.9130   -3.8456    0.0000 H   0  0  0  0  0  0  0  0  0  0  0  0
   -4.5651   -4.8800    0.0000 H   0  0  0  0  0  0  0  0  0  0  0  0
   -5.2813   -2.1100    0.0000 H   0  0  0  0  0  0  0  0  0  0  0  0
   -4.9448    1.2706    0.0000 H   0  0  0  0  0  0  0  0  0  0  0  0
   -1.5639    1.8092    0.0000 H   0  0  0  0  0  0  0  0  0  0  0  0
   -3.7964    2.0636    0.0000 H   0  0  0  0  0  0  0  0  0  0  0  0
   -1.6605   -0.0351    0.0000 H   0  0  0  0  0  0  0  0  0  0  0  0
   -5.4437   -2.5310    0.0000 H   0  0  0  0  0  0  0  0  0  0  0  0
   -7.6007    0.1276    0.0000 H   0  0  0  0  0  0  0  0  0  0  0  0
   -6.8751   -1.8657    0.0000 H   0  0  0  0  0  0  0  0  0  0  0  0
   -5.7777    0.9203    0.0000 H   0  0  0  0  0  0  0  0  0  0  0  0
    4.7228    4.5963    0.0000 H   0  0  0  0  0  0  0  0  0  0  0  0
    5.1068    2.7897    0.0000 H   0  0  0  0  0  0  0  0  0  0  0  0
    2.7356    4.5443    0.0000 H   0  0  0  0  0  0  0  0  0  0  0  0
    5.4107    1.0222    0.0000 H   0  0  0  0  0  0  0  0  0  0  0  0
    4.9076    2.4830    0.0000 H   0  0  0  0  0  0  0  0  0  0  0  0
    3.2860   -0.0143    0.0000 H   0  0  0  0  0  0  0  0  0  0  0  0
    0.6224    4.3594    0.0000 H   0  0  0  0  0  0  0  0  0  0  0  0
    2.4622    4.5203    0.0000 H   0  0  0  0  0  0  0  0  0  0  0  0
    0.3333    2.5352    0.0000 H   0  0  0  0  0  0  0  0  0  0  0  0
  1  2  1  0
  2  3  1  0
  3  4  1  0
  4  5  1  0
  5  6  1  0
  6  7  1  0
  7  8  1  6
  7  9  1  0
  9 10  2  3
 10 11  1  0
 11 12  1  0
 12 13  1  0
 13 14  1  0
 14 15  1  0
 15 16  1  0
 16 17  1  0
 17 18  1  0
 18 19  1  0
 14 20  1  0
 20 21  1  1
 20 22  1  0
 22 23  1  0
 23 24  1  0
 24 25  1  0
 25 26  2  3
 26 27  1  0
 27 28  1  0
 28 29  1  0
 29 30  1  0
 30 31  1  0
 31 32  1  0
 24 33  1  6
 33 34  1  0
 24 35  1  0
 35 36  1  6
 37 35  1  6
 37 38  1  0
 38 39  1  0
 38 40  1  0
 40 41  1  0
 12 42  1  0
 42 43  1  0
 42 44  1  0
 42 45  1  0
  6  4  1  0
 20 13  1  0
 37 22  1  0
  7  5  1  0
 19 14  1  0
 35 23  1  0
 40 37  1  0
 30 28  1  0
  1 46  1  0
  1 47  1  0
  1 48  1  0
  2 49  1  0
  2 50  1  0
  3 51  1  0
  3 52  1  0
  4 53  1  6
  5 54  1  1
  6 55  1  1
  8 56  1  0
  8 57  1  0
  8 58  1  0
  9 59  1  0
 10 60  1  0
 11 61  1  0
 12 62  1  1
 13 63  1  6
 15 64  1  0
 15 65  1  0
 16 66  1  0
 16 67  1  0
 17 68  1  0
 17 69  1  0
 18 70  1  0
 18 71  1  0
 19 72  1  0
 19 73  1  0
 21 74  1  0
 21 75  1  0
 21 76  1  0
 22 77  1  1
 23 78  1  6
 25 79  1  0
 27 80  1  0
 27 81  1  0
 28 82  1  6
 29 83  1  0
 29 84  1  0
 30 85  1  1
 31 86  1  0
 31 87  1  0
 32 88  1  0
 32 89  1  0
 32 90  1  0
 34 91  1  0
 34 92  1  0
 34 93  1  0
 36 94  1  0
 36 95  1  0
 36 96  1  0
 38 97  1  1
 39 98  1  0
 39 99  1  0
 39100  1  0
 40101  1  1
 41102  1  0
 41103  1  0
 41104  1  0
 43105  1  0
 43106  1  0
 43107  1  0
 44108  1  0
 44109  1  0
 44110  1  0
 45111  1  0
 45112  1  0
 45113  1  0
M  END
$$$$
