
     RDKit          2D

 64 71  0  0  0  0  0  0  0  0999 V2000
   -8.7260   14.2522    0.0000 C   0  0  0  0  0  0  0  0  0  0  0  0
   -7.2994   13.7887    0.0000 C   0  0  0  0  0  0  0  0  0  0  0  0
   -7.9095   12.4184    0.0000 C   0  0  0  0  0  0  0  0  0  0  0  0
   -6.7948   11.4147    0.0000 C   0  0  0  0  0  0  0  0  0  0  0  0
   -5.4958   12.1647    0.0000 C   0  0  0  0  0  0  0  0  0  0  0  0
   -5.8077   13.6319    0.0000 C   0  0  0  0  0  0  0  0  0  0  0  0
   -5.4958   10.6647    0.0000 C   0  0  0  0  0  0  0  0  0  0  0  0
   -4.0186   10.4042    0.0000 C   0  0  0  0  0  0  0  0  0  0  0  0
   -6.0088    9.2552    0.0000 C   0  0  0  0  0  0  0  0  0  0  0  0
   -6.5218    7.8456    0.0000 C   0  0  0  0  0  0  0  0  0  0  0  0
   -5.0446    7.5851    0.0000 O   0  0  0  0  0  0  0  0  0  0  0  0
   -4.5316    6.1756    0.0000 C   0  0  0  0  0  0  0  0  0  0  0  0
   -4.0186    4.7661    0.0000 C   0  0  0  0  0  0  0  0  0  0  0  0
   -4.0186    3.2661    0.0000 N   0  0  0  0  0  0  0  0  0  0  0  0
   -2.7195    2.5161    0.0000 C   0  0  0  0  0  0  0  0  0  0  0  0
   -1.4205    1.7661    0.0000 C   0  0  0  0  0  0  0  0  0  0  0  0
   -0.1811    2.6110    0.0000 N   0  0  0  0  0  0  0  0  0  0  0  0
    1.3706    2.3740    0.0000 C   0  0  0  0  0  0  0  0  0  0  0  0
    2.1206    3.6731    0.0000 O   0  0  0  0  0  0  0  0  0  0  0  0
    1.9807    1.0037    0.0000 C   0  0  0  0  0  0  0  0  0  0  0  0
    0.8660    0.0000    0.0000 C   0  0  0  0  0  0  0  0  0  0  0  0
   -0.4330    0.7500    0.0000 C   0  0  0  0  0  0  0  0  0  0  0  0
    0.3472    1.6970    0.0000 C   0  0  0  0  0  0  0  0  0  0  0  0
   -0.4330   -0.7500    0.0000 C   0  0  0  0  0  0  0  0  0  0  0  0
   -1.5326    0.2703    0.0000 N   0  0  0  0  0  0  0  0  0  0  0  0
   -5.4958    5.0265    0.0000 N   0  0  0  0  0  0  0  0  0  0  0  0
   -6.9730    5.2870    0.0000 C   0  0  0  0  0  0  0  0  0  0  0  0
   -7.2335    3.8098    0.0000 O   0  0  0  0  0  0  0  0  0  0  0  0
   -8.4502    5.5475    0.0000 C   0  0  0  0  0  0  0  0  0  0  0  0
   -7.4860    6.6965    0.0000 C   0  0  0  0  0  0  0  0  0  0  0  0
  -10.1526   14.7158    0.0000 H   0  0  0  0  0  0  0  0  0  0  0  0
   -8.2625   15.6788    0.0000 H   0  0  0  0  0  0  0  0  0  0  0  0
   -9.0629   13.5298    0.0000 H   0  0  0  0  0  0  0  0  0  0  0  0
   -6.9876   15.2559    0.0000 H   0  0  0  0  0  0  0  0  0  0  0  0
   -8.7912   11.2049    0.0000 H   0  0  0  0  0  0  0  0  0  0  0  0
   -8.6433   12.7298    0.0000 H   0  0  0  0  0  0  0  0  0  0  0  0
   -7.8178   10.3177    0.0000 H   0  0  0  0  0  0  0  0  0  0  0  0
   -4.0342   12.5022    0.0000 H   0  0  0  0  0  0  0  0  0  0  0  0
   -5.8077   15.1319    0.0000 H   0  0  0  0  0  0  0  0  0  0  0  0
   -4.3159   13.7887    0.0000 H   0  0  0  0  0  0  0  0  0  0  0  0
   -2.5414   10.1437    0.0000 H   0  0  0  0  0  0  0  0  0  0  0  0
   -3.5800   11.8387    0.0000 H   0  0  0  0  0  0  0  0  0  0  0  0
   -4.0970    8.9063    0.0000 H   0  0  0  0  0  0  0  0  0  0  0  0
   -4.6723    8.5741    0.0000 H   0  0  0  0  0  0  0  0  0  0  0  0
   -7.4704    9.5925    0.0000 H   0  0  0  0  0  0  0  0  0  0  0  0
   -7.8209    8.5956    0.0000 H   0  0  0  0  0  0  0  0  0  0  0  0
   -5.7751    5.3367    0.0000 H   0  0  0  0  0  0  0  0  0  0  0  0
   -2.5414    5.0265    0.0000 H   0  0  0  0  0  0  0  0  0  0  0  0
   -5.3176    2.5161    0.0000 H   0  0  0  0  0  0  0  0  0  0  0  0
   -3.4695    1.2170    0.0000 H   0  0  0  0  0  0  0  0  0  0  0  0
   -1.9695    3.8151    0.0000 H   0  0  0  0  0  0  0  0  0  0  0  0
    3.6206    3.6731    0.0000 H   0  0  0  0  0  0  0  0  0  0  0  0
    3.2798    1.7537    0.0000 H   0  0  0  0  0  0  0  0  0  0  0  0
    2.8624   -0.2098    0.0000 H   0  0  0  0  0  0  0  0  0  0  0  0
    1.7477   -1.2135    0.0000 H   0  0  0  0  0  0  0  0  0  0  0  0
   -1.8425    1.2631    0.0000 H   0  0  0  0  0  0  0  0  0  0  0  0
   -1.6065    2.0084    0.0000 H   0  0  0  0  0  0  0  0  0  0  0  0
   -0.1211    3.7172    0.0000 H   0  0  0  0  0  0  0  0  0  0  0  0
   -1.1830   -2.0490    0.0000 H   0  0  0  0  0  0  0  0  0  0  0  0
   -2.9289   -0.2778    0.0000 H   0  0  0  0  0  0  0  0  0  0  0  0
   -8.5700    3.1288    0.0000 H   0  0  0  0  0  0  0  0  0  0  0  0
   -9.1312    4.2110    0.0000 H   0  0  0  0  0  0  0  0  0  0  0  0
   -9.7492    6.2975    0.0000 H   0  0  0  0  0  0  0  0  0  0  0  0
   -8.6351    7.6607    0.0000 H   0  0  0  0  0  0  0  0  0  0  0  0
  1  2  1  0
  2  3  1  0
  3  4  1  0
  4  5  1  0
  5  6  1  0
  5  7  1  0
  7  8  1  0
  7  9  1  0
  9 10  1  0
 10 11  1  0
 11 12  1  0
 12 13  1  0
 13 14  1  0
 14 15  1  0
 15 16  1  0
 16 17  2  0
 17 18  1  0
 18 19  1  0
 18 20  1  0
 20 21  1  0
 21 22  1  0
 22 23  1  0
 22 24  1  0
 24 25  1  0
 13 26  1  0
 26 27  1  0
 27 28  1  0
 27 29  1  0
 29 30  1  0
  6  2  1  0
 30 10  1  0
  7  4  1  0
 26 12  1  0
 30 27  1  0
 25 16  1  0
 23 18  1  0
 24 21  1  0
  1 31  1  0
  1 32  1  0
  1 33  1  0
  2 34  1  0
  3 35  1  0
  3 36  1  0
  4 37  1  0
  5 38  1  0
  6 39  1  0
  6 40  1  0
  8 41  1  0
  8 42  1  0
  8 43  1  0
  9 44  1  0
  9 45  1  0
 10 46  1  0
 12 47  1  0
 13 48  1  0
 14 49  1  0
 15 50  1  0
 15 51  1  0
 19 52  1  0
 20 53  1  0
 20 54  1  0
 21 55  1  0
 22 56  1  0
 23 57  1  0
 23 58  1  0
 24 59  1  0
 25 60  1  0
 28 61  1  0
 29 62  1  0
 29 63  1  0
 30 64  1  0
M  END
$$$$
