
     RDKit          2D

 53 58  0  0  0  0  0  0  0  0999 V2000
  -11.4706    3.2871    0.0000 C   0  0  0  0  0  0  0  0  0  0  0  0
   -9.9822    3.4736    0.0000 C   0  0  0  0  0  0  0  0  0  0  0  0
   -8.4939    3.6601    0.0000 C   0  0  0  0  0  0  0  0  0  0  0  0
   -7.0055    3.8466    0.0000 C   0  0  0  0  0  0  0  0  0  0  0  0
   -6.9308    5.3447    0.0000 C   0  0  0  0  0  0  0  0  0  0  0  0
   -5.6707    4.5309    0.0000 C   0  0  0  0  0  0  0  0  0  0  0  0
   -4.6505    5.6305    0.0000 C   0  0  0  0  0  0  0  0  0  0  0  0
   -4.7650    3.3352    0.0000 C   0  0  0  0  0  0  0  0  0  0  0  0
   -3.8593    2.1395    0.0000 C   0  0  0  0  0  0  0  0  0  0  0  0
   -2.9536    0.9438    0.0000 C   0  0  0  0  0  0  0  0  0  0  0  0
   -2.0479   -0.2519    0.0000 C   0  0  0  0  0  0  0  0  0  0  0  0
   -3.0682   -1.3515    0.0000 C   0  0  0  0  0  0  0  0  0  0  0  0
   -3.7190    0.0000    0.0000 C   0  0  0  0  0  0  0  0  0  0  0  0
   -3.0682    1.3515    0.0000 C   0  0  0  0  0  0  0  0  0  0  0  0
   -1.6058    1.6852    0.0000 C   0  0  0  0  0  0  0  0  0  0  0  0
    0.5872    1.4738    0.0000 C   0  0  0  0  0  0  0  0  0  0  0  0
    0.8660    0.0000    0.0000 C   0  0  0  0  0  0  0  0  0  0  0  0
   -0.4330    0.7500    0.0000 C   0  0  0  0  0  0  0  0  0  0  0  0
   -0.4330   -0.7500    0.0000 C   0  0  0  0  0  0  0  0  0  0  0  0
   -1.6058   -1.6852    0.0000 C   0  0  0  0  0  0  0  0  0  0  0  0
   -2.6260   -2.7848    0.0000 C   0  0  0  0  0  0  0  0  0  0  0  0
  -12.9590    3.1005    0.0000 H   0  0  0  0  0  0  0  0  0  0  0  0
  -11.6571    4.7754    0.0000 H   0  0  0  0  0  0  0  0  0  0  0  0
  -11.2841    1.7987    0.0000 H   0  0  0  0  0  0  0  0  0  0  0  0
  -10.1688    4.9619    0.0000 H   0  0  0  0  0  0  0  0  0  0  0  0
   -9.7957    1.9852    0.0000 H   0  0  0  0  0  0  0  0  0  0  0  0
   -8.3074    2.1717    0.0000 H   0  0  0  0  0  0  0  0  0  0  0  0
   -8.8604    5.1146    0.0000 H   0  0  0  0  0  0  0  0  0  0  0  0
   -6.7414    2.3700    0.0000 H   0  0  0  0  0  0  0  0  0  0  0  0
   -6.5209    6.7877    0.0000 H   0  0  0  0  0  0  0  0  0  0  0  0
   -8.3416    5.8543    0.0000 H   0  0  0  0  0  0  0  0  0  0  0  0
   -3.6302    6.7301    0.0000 H   0  0  0  0  0  0  0  0  0  0  0  0
   -5.6175    6.7772    0.0000 H   0  0  0  0  0  0  0  0  0  0  0  0
   -3.4347    4.7519    0.0000 H   0  0  0  0  0  0  0  0  0  0  0  0
   -5.8414    2.2905    0.0000 H   0  0  0  0  0  0  0  0  0  0  0  0
   -3.4678    4.0884    0.0000 H   0  0  0  0  0  0  0  0  0  0  0  0
   -5.2386    1.5501    0.0000 H   0  0  0  0  0  0  0  0  0  0  0  0
   -2.7829    3.1842    0.0000 H   0  0  0  0  0  0  0  0  0  0  0  0
   -1.5743    1.5333    0.0000 H   0  0  0  0  0  0  0  0  0  0  0  0
   -4.3329    0.3544    0.0000 H   0  0  0  0  0  0  0  0  0  0  0  0
   -0.9183    0.7351    0.0000 H   0  0  0  0  0  0  0  0  0  0  0  0
   -4.8917   -0.9352    0.0000 H   0  0  0  0  0  0  0  0  0  0  0  0
   -5.0832    0.6237    0.0000 H   0  0  0  0  0  0  0  0  0  0  0  0
   -4.5305    1.6852    0.0000 H   0  0  0  0  0  0  0  0  0  0  0  0
   -2.8853    2.8403    0.0000 H   0  0  0  0  0  0  0  0  0  0  0  0
   -1.2720    3.1476    0.0000 H   0  0  0  0  0  0  0  0  0  0  0  0
    2.0610    1.7527    0.0000 H   0  0  0  0  0  0  0  0  0  0  0  0
    0.3083    2.9477    0.0000 H   0  0  0  0  0  0  0  0  0  0  0  0
    2.3660    0.0000    0.0000 H   0  0  0  0  0  0  0  0  0  0  0  0
    0.6867    1.7481    0.0000 H   0  0  0  0  0  0  0  0  0  0  0  0
    0.4120   -1.9894    0.0000 H   0  0  0  0  0  0  0  0  0  0  0  0
   -1.7203   -3.9805    0.0000 H   0  0  0  0  0  0  0  0  0  0  0  0
   -3.9608   -3.4691    0.0000 H   0  0  0  0  0  0  0  0  0  0  0  0
  1  2  1  0
  2  3  1  0
  3  4  1  0
  4  5  1  0
  5  6  1  0
  6  7  1  0
  6  8  1  0
  8  9  1  0
  9 10  1  0
 10 11  1  0
 11 12  1  0
 12 13  1  0
 13 14  1  0
 14 15  1  0
 15 16  1  0
 16 17  1  0
 17 18  1  0
 18 19  1  0
 19 20  1  0
 20 21  1  0
  6  4  1  0
 20 11  1  0
 20 12  1  0
 21 12  1  0
 18 15  1  0
 19 17  1  0
  1 22  1  0
  1 23  1  0
  1 24  1  0
  2 25  1  0
  2 26  1  0
  3 27  1  0
  3 28  1  0
  4 29  1  0
  5 30  1  0
  5 31  1  0
  7 32  1  0
  7 33  1  0
  7 34  1  0
  8 35  1  0
  8 36  1  0
  9 37  1  0
  9 38  1  0
 10 39  1  0
 10 40  1  0
 11 41  1  0
 13 42  1  0
 13 43  1  0
 14 44  1  0
 14 45  1  0
 15 46  1  0
 16 47  1  0
 16 48  1  0
 17 49  1  0
 18 50  1  0
 19 51  1  0
 21 52  1  0
 21 53  1  0
M  END
$$$$
