
     RDKit          2D

 86 95  0  0  0  0  0  0  0  0999 V2000
   -5.6101   -1.4056    0.0000 C   0  0  0  0  0  0  0  0  0  0  0  0
   -5.7669    0.0861    0.0000 C   0  0  0  0  0  0  0  0  0  0  0  0
   -5.9236    1.5779    0.0000 C   0  0  0  0  0  0  0  0  0  0  0  0
   -7.4154    1.4211    0.0000 C   0  0  0  0  0  0  0  0  0  0  0  0
   -7.5722    2.9129    0.0000 C   0  0  0  0  0  0  0  0  0  0  0  0
   -8.1823    4.2832    0.0000 C   0  0  0  0  0  0  0  0  0  0  0  0
   -7.0676    5.2869    0.0000 C   0  0  0  0  0  0  0  0  0  0  0  0
   -5.7686    4.5369    0.0000 C   0  0  0  0  0  0  0  0  0  0  0  0
   -6.0804    3.0697    0.0000 C   0  0  0  0  0  0  0  0  0  0  0  0
   -4.2751    0.2429    0.0000 C   0  0  0  0  0  0  0  0  0  0  0  0
   -4.1183   -1.2489    0.0000 N   0  0  0  0  0  0  0  0  0  0  0  0
   -5.3318   -2.1305    0.0000 C   0  0  0  0  0  0  0  0  0  0  0  0
   -6.5453   -3.0122    0.0000 O   0  0  0  0  0  0  0  0  0  0  0  0
   -2.7833    0.3997    0.0000 C   0  0  0  0  0  0  0  0  0  0  0  0
   -1.2915    0.5565    0.0000 C   0  0  0  0  0  0  0  0  0  0  0  0
    0.2003    0.7133    0.0000 N   0  0  0  0  0  0  0  0  0  0  0  0
    0.8104    2.0836    0.0000 C   0  0  0  0  0  0  0  0  0  0  0  0
    1.4205    3.4539    0.0000 C   0  0  0  0  0  0  0  0  0  0  0  0
    2.7908    2.8438    0.0000 O   0  0  0  0  0  0  0  0  0  0  0  0
    2.0306    4.8243    0.0000 C   0  0  0  0  0  0  0  0  0  0  0  0
    3.5224    4.9811    0.0000 O   0  0  0  0  0  0  0  0  0  0  0  0
   -2.6265   -1.0921    0.0000 C   0  0  0  0  0  0  0  0  0  0  0  0
   -2.4697   -2.5838    0.0000 C   0  0  0  0  0  0  0  0  0  0  0  0
   -3.9615   -2.7406    0.0000 C   0  0  0  0  0  0  0  0  0  0  0  0
   -4.8432   -1.5271    0.0000 C   0  0  0  0  0  0  0  0  0  0  0  0
   -6.0867   -0.6883    0.0000 C   0  0  0  0  0  0  0  0  0  0  0  0
   -5.9821    0.8080    0.0000 C   0  0  0  0  0  0  0  0  0  0  0  0
   -7.3303    0.1505    0.0000 C   0  0  0  0  0  0  0  0  0  0  0  0
   -8.6785   -0.5071    0.0000 C   0  0  0  0  0  0  0  0  0  0  0  0
   -7.4349   -1.3459    0.0000 C   0  0  0  0  0  0  0  0  0  0  0  0
   -4.2331   -0.1568    0.0000 C   0  0  0  0  0  0  0  0  0  0  0  0
   -2.7413    0.0000    0.0000 C   0  0  0  0  0  0  0  0  0  0  0  0
   -1.8596    1.2135    0.0000 C   0  0  0  0  0  0  0  0  0  0  0  0
   -0.4330    0.7500    0.0000 C   0  0  0  0  0  0  0  0  0  0  0  0
    0.8660    0.0000    0.0000 C   0  0  0  0  0  0  0  0  0  0  0  0
   -0.4330   -0.7500    0.0000 C   0  0  0  0  0  0  0  0  0  0  0  0
   -1.8596   -1.2135    0.0000 C   0  0  0  0  0  0  0  0  0  0  0  0
   -0.9779   -2.4271    0.0000 C   0  0  0  0  0  0  0  0  0  0  0  0
   -6.1721   -2.7964    0.0000 H   0  0  0  0  0  0  0  0  0  0  0  0
   -7.0196   -1.9188    0.0000 H   0  0  0  0  0  0  0  0  0  0  0  0
   -4.1485   -1.0682    0.0000 H   0  0  0  0  0  0  0  0  0  0  0  0
   -7.2522    0.2950    0.0000 H   0  0  0  0  0  0  0  0  0  0  0  0
   -7.3332    1.0648    0.0000 H   0  0  0  0  0  0  0  0  0  0  0  0
   -8.9152    1.4473    0.0000 H   0  0  0  0  0  0  0  0  0  0  0  0
   -7.9285    2.8306    0.0000 H   0  0  0  0  0  0  0  0  0  0  0  0
   -9.0211    2.5247    0.0000 H   0  0  0  0  0  0  0  0  0  0  0  0
   -9.4814    3.5332    0.0000 H   0  0  0  0  0  0  0  0  0  0  0  0
   -9.0640    5.4968    0.0000 H   0  0  0  0  0  0  0  0  0  0  0  0
   -8.1823    6.2906    0.0000 H   0  0  0  0  0  0  0  0  0  0  0  0
   -6.1859    6.5004    0.0000 H   0  0  0  0  0  0  0  0  0  0  0  0
   -5.1585    5.9072    0.0000 H   0  0  0  0  0  0  0  0  0  0  0  0
   -4.3420    4.0734    0.0000 H   0  0  0  0  0  0  0  0  0  0  0  0
   -4.5825    2.9912    0.0000 H   0  0  0  0  0  0  0  0  0  0  0  0
   -4.4319    1.7347    0.0000 H   0  0  0  0  0  0  0  0  0  0  0  0
   -3.1949   -2.4310    0.0000 H   0  0  0  0  0  0  0  0  0  0  0  0
   -4.9437   -3.5795    0.0000 H   0  0  0  0  0  0  0  0  0  0  0  0
   -6.6801   -1.4731    0.0000 H   0  0  0  0  0  0  0  0  0  0  0  0
   -6.3885   -4.5040    0.0000 H   0  0  0  0  0  0  0  0  0  0  0  0
   -2.7571    1.8995    0.0000 H   0  0  0  0  0  0  0  0  0  0  0  0
   -1.4483    2.0483    0.0000 H   0  0  0  0  0  0  0  0  0  0  0  0
   -0.3073   -0.5754    0.0000 H   0  0  0  0  0  0  0  0  0  0  0  0
    1.3494   -0.2508    0.0000 H   0  0  0  0  0  0  0  0  0  0  0  0
   -0.5599    2.6937    0.0000 H   0  0  0  0  0  0  0  0  0  0  0  0
    2.2449    1.6451    0.0000 H   0  0  0  0  0  0  0  0  0  0  0  0
    0.0502    4.0640    0.0000 H   0  0  0  0  0  0  0  0  0  0  0  0
    4.0043    3.7255    0.0000 H   0  0  0  0  0  0  0  0  0  0  0  0
    1.1489    6.0378    0.0000 H   0  0  0  0  0  0  0  0  0  0  0  0
   -1.2900   -0.4110    0.0000 H   0  0  0  0  0  0  0  0  0  0  0  0
   -4.1263   -1.0658    0.0000 H   0  0  0  0  0  0  0  0  0  0  0  0
   -5.1105   -3.7049    0.0000 H   0  0  0  0  0  0  0  0  0  0  0  0
   -3.5480   -4.1825    0.0000 H   0  0  0  0  0  0  0  0  0  0  0  0
   -6.2027   -2.1609    0.0000 H   0  0  0  0  0  0  0  0  0  0  0  0
   -4.7386    1.6469    0.0000 H   0  0  0  0  0  0  0  0  0  0  0  0
   -6.3955    2.2499    0.0000 H   0  0  0  0  0  0  0  0  0  0  0  0
   -9.7015    0.5899    0.0000 H   0  0  0  0  0  0  0  0  0  0  0  0
   -9.7205   -1.5861    0.0000 H   0  0  0  0  0  0  0  0  0  0  0  0
   -7.5395   -2.8422    0.0000 H   0  0  0  0  0  0  0  0  0  0  0  0
   -3.9468    1.3156    0.0000 H   0  0  0  0  0  0  0  0  0  0  0  0
   -5.6885    0.2061    0.0000 H   0  0  0  0  0  0  0  0  0  0  0  0
   -3.4913    1.2990    0.0000 H   0  0  0  0  0  0  0  0  0  0  0  0
   -2.3231    2.6401    0.0000 H   0  0  0  0  0  0  0  0  0  0  0  0
   -0.1726    2.2272    0.0000 H   0  0  0  0  0  0  0  0  0  0  0  0
    1.9631    1.0230    0.0000 H   0  0  0  0  0  0  0  0  0  0  0  0
    1.8302   -1.1491    0.0000 H   0  0  0  0  0  0  0  0  0  0  0  0
    0.1771   -2.1203    0.0000 H   0  0  0  0  0  0  0  0  0  0  0  0
    0.3924   -3.0372    0.0000 H   0  0  0  0  0  0  0  0  0  0  0  0
  1  2  1  0
  2  3  1  0
  3  4  1  0
  4  5  1  0
  5  6  1  0
  6  7  1  0
  7  8  1  0
  8  9  1  0
  2 10  1  0
 10 11  1  0
 11 12  1  0
 12 13  1  0
 10 14  1  0
 14 15  1  0
 15 16  1  0
 16 17  1  0
 17 18  1  0
 18 19  1  0
 18 20  1  0
 20 21  2  0
 14 22  1  0
 22 23  1  0
 23 24  1  0
 24 25  1  0
 25 26  1  0
 26 27  1  0
 27 28  1  0
 28 29  1  0
 29 30  1  0
 25 31  1  0
 31 32  1  0
 32 33  1  0
 33 34  1  0
 34 35  1  0
 35 36  1  0
 36 37  1  0
 37 38  1  0
  9  3  1  0
 37 23  1  0
  9  5  1  0
 38 23  1  0
 28 26  1  0
 37 32  1  0
 30 26  1  0
 38 33  1  0
 30 28  1  0
 36 34  1  0
  1 39  1  0
  1 40  1  0
  1 41  1  0
  2 42  1  0
  3 43  1  0
  4 44  1  0
  4 45  1  0
  5 46  1  0
  6 47  1  0
  6 48  1  0
  7 49  1  0
  7 50  1  0
  8 51  1  0
  8 52  1  0
  9 53  1  0
 10 54  1  0
 11 55  1  0
 12 56  1  0
 12 57  1  0
 13 58  1  0
 14 59  1  0
 15 60  1  0
 15 61  1  0
 16 62  1  0
 17 63  1  0
 17 64  1  0
 18 65  1  0
 19 66  1  0
 20 67  1  0
 22 68  1  0
 22 69  1  0
 24 70  1  0
 24 71  1  0
 25 72  1  0
 27 73  1  0
 27 74  1  0
 29 75  1  0
 29 76  1  0
 30 77  1  0
 31 78  1  0
 31 79  1  0
 32 80  1  0
 33 81  1  0
 34 82  1  0
 35 83  1  0
 35 84  1  0
 36 85  1  0
 38 86  1  0
M  END
$$$$
