
     RDKit          2D

103112  0  0  0  0  0  0  0  0999 V2000
  -11.3342    1.7772    0.0000 C   0  0  0  0  0  0  0  0  0  0  0  0
   -9.8570    2.0377    0.0000 C   0  0  0  0  0  0  0  0  0  0  0  0
   -8.8928    0.8886    0.0000 C   0  0  0  0  0  0  0  0  0  0  0  0
   -9.4059   -0.5209    0.0000 N   0  0  0  0  0  0  0  0  0  0  0  0
   -7.4156    1.1491    0.0000 O   0  0  0  0  0  0  0  0  0  0  0  0
   -6.4514   -0.0000    0.0000 C   0  0  0  0  0  0  0  0  0  0  0  0
   -5.1524    0.7500    0.0000 N   0  0  0  0  0  0  0  0  0  0  0  0
   -5.1524   -0.7500    0.0000 C   0  0  0  0  0  0  0  0  0  0  0  0
   -5.1524   -2.2500    0.0000 O   0  0  0  0  0  0  0  0  0  0  0  0
   -3.8534   -0.0000    0.0000 C   0  0  0  0  0  0  0  0  0  0  0  0
   -2.7927    1.0607    0.0000 C   0  0  0  0  0  0  0  0  0  0  0  0
   -1.7321    0.0000    0.0000 N   0  0  0  0  0  0  0  0  0  0  0  0
   -2.7927   -1.0607    0.0000 N   0  0  0  0  0  0  0  0  0  0  0  0
   -2.7927   -2.5607    0.0000 C   0  0  0  0  0  0  0  0  0  0  0  0
   -1.2927   -2.5607    0.0000 C   0  0  0  0  0  0  0  0  0  0  0  0
    0.2073   -2.5607    0.0000 C   0  0  0  0  0  0  0  0  0  0  0  0
    1.7073   -2.5607    0.0000 C   0  0  0  0  0  0  0  0  0  0  0  0
    3.2073   -2.5607    0.0000 C   0  0  0  0  0  0  0  0  0  0  0  0
    0.2073   -4.0607    0.0000 C   0  0  0  0  0  0  0  0  0  0  0  0
    0.2073   -5.5607    0.0000 C   0  0  0  0  0  0  0  0  0  0  0  0
    0.2073   -7.0607    0.0000 C   0  0  0  0  0  0  0  0  0  0  0  0
    0.2073   -8.5607    0.0000 C   0  0  0  0  0  0  0  0  0  0  0  0
    1.6845   -8.8211    0.0000 C   0  0  0  0  0  0  0  0  0  0  0  0
    2.1975  -10.2307    0.0000 C   0  0  0  0  0  0  0  0  0  0  0  0
    3.6747   -9.9702    0.0000 C   0  0  0  0  0  0  0  0  0  0  0  0
    0.7203   -9.9702    0.0000 C   0  0  0  0  0  0  0  0  0  0  0  0
    1.7073   -4.0607    0.0000 C   0  0  0  0  0  0  0  0  0  0  0  0
    3.2073   -4.0607    0.0000 C   0  0  0  0  0  0  0  0  0  0  0  0
    3.3641   -2.5689    0.0000 C   0  0  0  0  0  0  0  0  0  0  0  0
    4.5776   -3.4506    0.0000 C   0  0  0  0  0  0  0  0  0  0  0  0
    5.5813   -4.5653    0.0000 C   0  0  0  0  0  0  0  0  0  0  0  0
    4.8313   -5.8643    0.0000 C   0  0  0  0  0  0  0  0  0  0  0  0
    6.2016   -6.4744    0.0000 O   0  0  0  0  0  0  0  0  0  0  0  0
    3.3641   -5.5524    0.0000 C   0  0  0  0  0  0  0  0  0  0  0  0
    3.2073   -7.0442    0.0000 C   0  0  0  0  0  0  0  0  0  0  0  0
   -4.2927   -2.5607    0.0000 C   0  0  0  0  0  0  0  0  0  0  0  0
   -5.7022   -3.0737    0.0000 C   0  0  0  0  0  0  0  0  0  0  0  0
   -6.6664   -4.2228    0.0000 C   0  0  0  0  0  0  0  0  0  0  0  0
   -5.5174   -5.1869    0.0000 C   0  0  0  0  0  0  0  0  0  0  0  0
   -4.3683   -6.1511    0.0000 C   0  0  0  0  0  0  0  0  0  0  0  0
   -3.6183   -7.4502    0.0000 C   0  0  0  0  0  0  0  0  0  0  0  0
   -5.1183   -7.4502    0.0000 C   0  0  0  0  0  0  0  0  0  0  0  0
   -5.3788   -8.9274    0.0000 C   0  0  0  0  0  0  0  0  0  0  0  0
   -5.6392  -10.4046    0.0000 C   0  0  0  0  0  0  0  0  0  0  0  0
   -4.5532   -4.0379    0.0000 C   0  0  0  0  0  0  0  0  0  0  0  0
  -12.2984    2.9263    0.0000 H   0  0  0  0  0  0  0  0  0  0  0  0
  -11.8473    0.3676    0.0000 H   0  0  0  0  0  0  0  0  0  0  0  0
   -9.3440    3.4472    0.0000 H   0  0  0  0  0  0  0  0  0  0  0  0
  -10.8831   -0.7814    0.0000 H   0  0  0  0  0  0  0  0  0  0  0  0
   -7.4156   -1.1491    0.0000 H   0  0  0  0  0  0  0  0  0  0  0  0
   -4.0735   -3.2920    0.0000 H   0  0  0  0  0  0  0  0  0  0  0  0
   -1.7321    2.1213    0.0000 H   0  0  0  0  0  0  0  0  0  0  0  0
   -3.8534    2.1213    0.0000 H   0  0  0  0  0  0  0  0  0  0  0  0
   -0.2321    0.0000    0.0000 H   0  0  0  0  0  0  0  0  0  0  0  0
   -2.6099   -4.0495    0.0000 H   0  0  0  0  0  0  0  0  0  0  0  0
   -1.4756   -4.0495    0.0000 H   0  0  0  0  0  0  0  0  0  0  0  0
   -1.2927   -1.0607    0.0000 H   0  0  0  0  0  0  0  0  0  0  0  0
    0.2073   -1.0607    0.0000 H   0  0  0  0  0  0  0  0  0  0  0  0
    2.0703   -4.0161    0.0000 H   0  0  0  0  0  0  0  0  0  0  0  0
    1.7073   -1.0607    0.0000 H   0  0  0  0  0  0  0  0  0  0  0  0
    4.6961   -2.3778    0.0000 H   0  0  0  0  0  0  0  0  0  0  0  0
    3.5703   -4.0161    0.0000 H   0  0  0  0  0  0  0  0  0  0  0  0
    3.0244   -1.0718    0.0000 H   0  0  0  0  0  0  0  0  0  0  0  0
   -1.2815   -4.2435    0.0000 H   0  0  0  0  0  0  0  0  0  0  0  0
    1.6961   -5.7435    0.0000 H   0  0  0  0  0  0  0  0  0  0  0  0
   -1.2927   -5.5607    0.0000 H   0  0  0  0  0  0  0  0  0  0  0  0
   -1.2927   -7.0607    0.0000 H   0  0  0  0  0  0  0  0  0  0  0  0
    1.6961   -6.8778    0.0000 H   0  0  0  0  0  0  0  0  0  0  0  0
   -1.2699   -8.8211    0.0000 H   0  0  0  0  0  0  0  0  0  0  0  0
    2.6487   -7.6721    0.0000 H   0  0  0  0  0  0  0  0  0  0  0  0
    2.1975  -11.7307    0.0000 H   0  0  0  0  0  0  0  0  0  0  0  0
    5.1520   -9.7097    0.0000 H   0  0  0  0  0  0  0  0  0  0  0  0
    3.9352  -11.4474    0.0000 H   0  0  0  0  0  0  0  0  0  0  0  0
    3.2361   -8.5358    0.0000 H   0  0  0  0  0  0  0  0  0  0  0  0
   -0.2439  -11.1193    0.0000 H   0  0  0  0  0  0  0  0  0  0  0  0
    1.8901   -5.5495    0.0000 H   0  0  0  0  0  0  0  0  0  0  0  0
    1.8901   -2.5718    0.0000 H   0  0  0  0  0  0  0  0  0  0  0  0
    2.1662   -1.6661    0.0000 H   0  0  0  0  0  0  0  0  0  0  0  0
    4.1811   -1.3109    0.0000 H   0  0  0  0  0  0  0  0  0  0  0  0
    5.7097   -2.4665    0.0000 H   0  0  0  0  0  0  0  0  0  0  0  0
    6.5850   -3.4506    0.0000 H   0  0  0  0  0  0  0  0  0  0  0  0
    6.7948   -5.4470    0.0000 H   0  0  0  0  0  0  0  0  0  0  0  0
    4.5451   -7.3368    0.0000 H   0  0  0  0  0  0  0  0  0  0  0  0
    6.3584   -7.9662    0.0000 H   0  0  0  0  0  0  0  0  0  0  0  0
    4.8632   -5.5000    0.0000 H   0  0  0  0  0  0  0  0  0  0  0  0
    2.8698   -8.5058    0.0000 H   0  0  0  0  0  0  0  0  0  0  0  0
    4.6688   -7.3817    0.0000 H   0  0  0  0  0  0  0  0  0  0  0  0
    1.7457   -6.7068    0.0000 H   0  0  0  0  0  0  0  0  0  0  0  0
   -4.9029   -1.1904    0.0000 H   0  0  0  0  0  0  0  0  0  0  0  0
   -6.5626   -1.8450    0.0000 H   0  0  0  0  0  0  0  0  0  0  0  0
   -7.6306   -5.3718    0.0000 H   0  0  0  0  0  0  0  0  0  0  0  0
   -7.8155   -3.2586    0.0000 H   0  0  0  0  0  0  0  0  0  0  0  0
   -6.6144   -6.2099    0.0000 H   0  0  0  0  0  0  0  0  0  0  0  0
   -3.1103   -5.3342    0.0000 H   0  0  0  0  0  0  0  0  0  0  0  0
   -2.2088   -6.9371    0.0000 H   0  0  0  0  0  0  0  0  0  0  0  0
   -3.1797   -8.8846    0.0000 H   0  0  0  0  0  0  0  0  0  0  0  0
   -6.5799   -7.1128    0.0000 H   0  0  0  0  0  0  0  0  0  0  0  0
   -6.8560   -8.6669    0.0000 H   0  0  0  0  0  0  0  0  0  0  0  0
   -3.9443   -9.3660    0.0000 H   0  0  0  0  0  0  0  0  0  0  0  0
   -5.8997  -11.8818    0.0000 H   0  0  0  0  0  0  0  0  0  0  0  0
   -7.1165  -10.1441    0.0000 H   0  0  0  0  0  0  0  0  0  0  0  0
   -4.1620  -10.6651    0.0000 H   0  0  0  0  0  0  0  0  0  0  0  0
   -3.1937   -4.6718    0.0000 H   0  0  0  0  0  0  0  0  0  0  0  0
  1  2  2  3
  2  3  1  0
  3  4  2  3
  3  5  1  0
  5  6  1  0
  6  7  1  0
  7  8  1  0
  8  9  1  0
  8 10  1  0
 10 11  1  0
 11 12  1  0
 12 13  1  0
 13 14  1  0
 14 15  1  0
 15 16  1  0
 16 17  1  0
 17 18  1  0
 16 19  1  0
 19 20  1  0
 20 21  1  0
 21 22  1  0
 22 23  1  0
 23 24  1  0
 24 25  1  0
 24 26  1  0
 19 27  1  0
 27 28  1  0
 28 29  1  0
 29 30  1  0
 30 31  1  0
 31 32  1  0
 32 33  1  0
 32 34  1  0
 34 35  1  0
 14 36  1  0
 36 37  1  0
 37 38  1  0
 38 39  1  0
 39 40  1  0
 40 41  1  0
 41 42  1  0
 42 43  1  0
 43 44  1  0
 39 45  1  0
  8  6  1  0
 13 10  1  0
 26 22  1  0
 30 28  1  0
 45 36  1  0
 10  7  1  0
 26 23  1  0
 34 28  1  0
 45 37  1  0
 42 40  1  0
  1 46  1  0
  1 47  1  0
  2 48  1  0
  4 49  1  0
  6 50  1  0
  9 51  1  0
 11 52  1  0
 11 53  1  0
 12 54  1  0
 14 55  1  0
 15 56  1  0
 15 57  1  0
 16 58  1  0
 17 59  1  0
 17 60  1  0
 18 61  1  0
 18 62  1  0
 18 63  1  0
 19 64  1  0
 20 65  1  0
 20 66  1  0
 21 67  1  0
 21 68  1  0
 22 69  1  0
 23 70  1  0
 24 71  1  0
 25 72  1  0
 25 73  1  0
 25 74  1  0
 26 75  1  0
 27 76  1  0
 27 77  1  0
 29 78  1  0
 29 79  1  0
 30 80  1  0
 31 81  1  0
 31 82  1  0
 32 83  1  0
 33 84  1  0
 34 85  1  0
 35 86  1  0
 35 87  1  0
 35 88  1  0
 36 89  1  0
 37 90  1  0
 38 91  1  0
 38 92  1  0
 39 93  1  0
 40 94  1  0
 41 95  1  0
 41 96  1  0
 42 97  1  0
 43 98  1  0
 43 99  1  0
 44100  1  0
 44101  1  0
 44102  1  0
 45103  1  0
M  END
$$$$
