
     RDKit          2D

114118  0  0  0  0  0  0  0  0999 V2000
   -8.3713  -17.8002    0.0000 C   0  0  0  0  0  0  0  0  0  0  0  0
   -7.1543  -16.9234    0.0000 C   0  0  0  0  0  0  0  0  0  0  0  0
   -5.7864  -17.5391    0.0000 C   0  0  0  0  0  0  0  0  0  0  0  0
   -7.3051  -15.4310    0.0000 N   0  0  0  0  0  0  0  0  0  0  0  0
   -6.0880  -14.5543    0.0000 C   0  0  0  0  0  0  0  0  0  0  0  0
   -4.8709  -13.6775    0.0000 C   0  0  0  0  0  0  0  0  0  0  0  0
   -3.6539  -12.8007    0.0000 C   0  0  0  0  0  0  0  0  0  0  0  0
   -2.7771  -14.0178    0.0000 N   0  0  0  0  0  0  0  0  0  0  0  0
   -2.4368  -11.9239    0.0000 C   0  0  0  0  0  0  0  0  0  0  0  0
   -1.2197  -11.0471    0.0000 C   0  0  0  0  0  0  0  0  0  0  0  0
   -0.0027  -10.1703    0.0000 O   0  0  0  0  0  0  0  0  0  0  0  0
   -4.5306  -11.5836    0.0000 C   0  0  0  0  0  0  0  0  0  0  0  0
   -5.4074  -10.3666    0.0000 N   0  0  0  0  0  0  0  0  0  0  0  0
   -4.1904   -9.4898    0.0000 C   0  0  0  0  0  0  0  0  0  0  0  0
   -3.9497   -8.0092    0.0000 C   0  0  0  0  0  0  0  0  0  0  0  0
   -2.7327   -7.1324    0.0000 C   0  0  0  0  0  0  0  0  0  0  0  0
   -2.1171   -5.7646    0.0000 C   0  0  0  0  0  0  0  0  0  0  0  0
   -0.7492   -5.1489    0.0000 C   0  0  0  0  0  0  0  0  0  0  0  0
    0.1759   -3.9682    0.0000 C   0  0  0  0  0  0  0  0  0  0  0  0
    1.1026   -5.1477    0.0000 I   0  0  0  0  0  0  0  0  0  0  0  0
    0.4463   -2.4927    0.0000 N   0  0  0  0  0  0  0  0  0  0  0  0
   -0.0000   -1.0607    0.0000 C   0  0  0  0  0  0  0  0  0  0  0  0
    1.0607    0.0000    0.0000 C   0  0  0  0  0  0  0  0  0  0  0  0
    2.1213    1.0607    0.0000 C   0  0  0  0  0  0  0  0  0  0  0  0
    0.0000    1.0607    0.0000 C   0  0  0  0  0  0  0  0  0  0  0  0
   -1.0607    2.1213    0.0000 C   0  0  0  0  0  0  0  0  0  0  0  0
   -2.1213    3.1820    0.0000 C   0  0  0  0  0  0  0  0  0  0  0  0
   -2.7552    4.5414    0.0000 C   0  0  0  0  0  0  0  0  0  0  0  0
   -1.2610    4.4107    0.0000 C   0  0  0  0  0  0  0  0  0  0  0  0
   -0.8727    5.8596    0.0000 C   0  0  0  0  0  0  0  0  0  0  0  0
   -1.0607    0.0000    0.0000 C   0  0  0  0  0  0  0  0  0  0  0  0
   -2.4927    0.4463    0.0000 C   0  0  0  0  0  0  0  0  0  0  0  0
   -3.9682    0.1759    0.0000 C   0  0  0  0  0  0  0  0  0  0  0  0
   -5.1489   -0.7492    0.0000 C   0  0  0  0  0  0  0  0  0  0  0  0
   -5.7646   -2.1171    0.0000 C   0  0  0  0  0  0  0  0  0  0  0  0
   -5.6740   -3.6143    0.0000 C   0  0  0  0  0  0  0  0  0  0  0  0
   -4.8980   -4.8980    0.0000 C   0  0  0  0  0  0  0  0  0  0  0  0
   -6.3734   -5.1684    0.0000 C   0  0  0  0  0  0  0  0  0  0  0  0
   -7.8489   -5.4388    0.0000 C   0  0  0  0  0  0  0  0  0  0  0  0
   -3.6143   -5.6740    0.0000 C   0  0  0  0  0  0  0  0  0  0  0  0
   -1.2521   -7.3730    0.0000 O   0  0  0  0  0  0  0  0  0  0  0  0
   -0.3753   -8.5901    0.0000 C   0  0  0  0  0  0  0  0  0  0  0  0
   -0.6159  -10.0707    0.0000 C   0  0  0  0  0  0  0  0  0  0  0  0
   -1.8330  -10.9475    0.0000 C   0  0  0  0  0  0  0  0  0  0  0  0
   -3.3136  -10.7068    0.0000 C   0  0  0  0  0  0  0  0  0  0  0  0
   -8.2206  -19.2926    0.0000 H   0  0  0  0  0  0  0  0  0  0  0  0
   -9.7392  -17.1846    0.0000 H   0  0  0  0  0  0  0  0  0  0  0  0
   -4.4186  -18.1547    0.0000 H   0  0  0  0  0  0  0  0  0  0  0  0
   -6.4020  -18.9069    0.0000 H   0  0  0  0  0  0  0  0  0  0  0  0
   -5.0087  -16.2565    0.0000 H   0  0  0  0  0  0  0  0  0  0  0  0
   -8.6729  -14.8154    0.0000 H   0  0  0  0  0  0  0  0  0  0  0  0
   -6.9648  -13.3372    0.0000 H   0  0  0  0  0  0  0  0  0  0  0  0
   -5.0694  -15.6554    0.0000 H   0  0  0  0  0  0  0  0  0  0  0  0
   -5.8895  -12.5764    0.0000 H   0  0  0  0  0  0  0  0  0  0  0  0
   -4.1490  -14.9923    0.0000 H   0  0  0  0  0  0  0  0  0  0  0  0
   -1.2774  -14.0500    0.0000 H   0  0  0  0  0  0  0  0  0  0  0  0
   -3.2214  -15.4504    0.0000 H   0  0  0  0  0  0  0  0  0  0  0  0
   -1.4182  -13.0250    0.0000 H   0  0  0  0  0  0  0  0  0  0  0  0
   -2.9930  -10.5308    0.0000 H   0  0  0  0  0  0  0  0  0  0  0  0
   -2.0965   -9.8301    0.0000 H   0  0  0  0  0  0  0  0  0  0  0  0
   -0.3429  -12.2642    0.0000 H   0  0  0  0  0  0  0  0  0  0  0  0
    1.3652  -10.7860    0.0000 H   0  0  0  0  0  0  0  0  0  0  0  0
   -5.8455  -12.3055    0.0000 H   0  0  0  0  0  0  0  0  0  0  0  0
   -6.8880  -10.1259    0.0000 H   0  0  0  0  0  0  0  0  0  0  0  0
   -5.5528   -8.8623    0.0000 H   0  0  0  0  0  0  0  0  0  0  0  0
   -4.9490   -6.8905    0.0000 H   0  0  0  0  0  0  0  0  0  0  0  0
   -5.4494   -7.9769    0.0000 H   0  0  0  0  0  0  0  0  0  0  0  0
   -4.0016   -6.3325    0.0000 H   0  0  0  0  0  0  0  0  0  0  0  0
   -0.9350   -6.6880    0.0000 H   0  0  0  0  0  0  0  0  0  0  0  0
   -0.4768   -6.6240    0.0000 H   0  0  0  0  0  0  0  0  0  0  0  0
    0.6178   -5.7664    0.0000 H   0  0  0  0  0  0  0  0  0  0  0  0
    1.6513   -3.6978    0.0000 H   0  0  0  0  0  0  0  0  0  0  0  0
    1.9435   -2.4022    0.0000 H   0  0  0  0  0  0  0  0  0  0  0  0
    1.4018   -1.5945    0.0000 H   0  0  0  0  0  0  0  0  0  0  0  0
    2.2427   -0.9235    0.0000 H   0  0  0  0  0  0  0  0  0  0  0  0
    3.1820    2.1213    0.0000 H   0  0  0  0  0  0  0  0  0  0  0  0
    3.1820    0.0000    0.0000 H   0  0  0  0  0  0  0  0  0  0  0  0
    1.1979    2.2427    0.0000 H   0  0  0  0  0  0  0  0  0  0  0  0
    0.9235    2.2427    0.0000 H   0  0  0  0  0  0  0  0  0  0  0  0
    0.1214    3.0448    0.0000 H   0  0  0  0  0  0  0  0  0  0  0  0
   -2.4952    1.6829    0.0000 H   0  0  0  0  0  0  0  0  0  0  0  0
   -3.5217    2.6445    0.0000 H   0  0  0  0  0  0  0  0  0  0  0  0
   -4.2041    4.1532    0.0000 H   0  0  0  0  0  0  0  0  0  0  0  0
   -3.0672    6.0087    0.0000 H   0  0  0  0  0  0  0  0  0  0  0  0
    0.1656    3.9472    0.0000 H   0  0  0  0  0  0  0  0  0  0  0  0
   -0.4845    7.3085    0.0000 H   0  0  0  0  0  0  0  0  0  0  0  0
    0.5762    5.4714    0.0000 H   0  0  0  0  0  0  0  0  0  0  0  0
   -2.2635    6.4215    0.0000 H   0  0  0  0  0  0  0  0  0  0  0  0
   -1.7614    1.3263    0.0000 H   0  0  0  0  0  0  0  0  0  0  0  0
   -2.2304    1.9231    0.0000 H   0  0  0  0  0  0  0  0  0  0  0  0
   -3.2687    1.7299    0.0000 H   0  0  0  0  0  0  0  0  0  0  0  0
   -4.0628    1.6729    0.0000 H   0  0  0  0  0  0  0  0  0  0  0  0
   -5.1477    1.1026    0.0000 H   0  0  0  0  0  0  0  0  0  0  0  0
   -5.7664    0.6178    0.0000 H   0  0  0  0  0  0  0  0  0  0  0  0
   -6.6240   -0.4768    0.0000 H   0  0  0  0  0  0  0  0  0  0  0  0
   -6.9466   -1.1936    0.0000 H   0  0  0  0  0  0  0  0  0  0  0  0
   -7.1973   -2.5613    0.0000 H   0  0  0  0  0  0  0  0  0  0  0  0
   -7.1061   -3.1681    0.0000 H   0  0  0  0  0  0  0  0  0  0  0  0
   -6.8573   -4.5362    0.0000 H   0  0  0  0  0  0  0  0  0  0  0  0
   -5.5174   -6.2641    0.0000 H   0  0  0  0  0  0  0  0  0  0  0  0
   -6.1030   -6.6438    0.0000 H   0  0  0  0  0  0  0  0  0  0  0  0
   -6.8216   -3.7369    0.0000 H   0  0  0  0  0  0  0  0  0  0  0  0
   -9.3243   -5.7091    0.0000 H   0  0  0  0  0  0  0  0  0  0  0  0
   -8.1192   -3.9633    0.0000 H   0  0  0  0  0  0  0  0  0  0  0  0
   -7.5785   -6.9142    0.0000 H   0  0  0  0  0  0  0  0  0  0  0  0
   -4.7951   -6.5991    0.0000 H   0  0  0  0  0  0  0  0  0  0  0  0
   -3.5279   -7.1715    0.0000 H   0  0  0  0  0  0  0  0  0  0  0  0
    1.0574   -9.0344    0.0000 H   0  0  0  0  0  0  0  0  0  0  0  0
    0.5734   -7.4282    0.0000 H   0  0  0  0  0  0  0  0  0  0  0  0
    0.2395  -11.3028    0.0000 H   0  0  0  0  0  0  0  0  0  0  0  0
    0.8837  -10.1029    0.0000 H   0  0  0  0  0  0  0  0  0  0  0  0
   -1.9174  -12.4451    0.0000 H   0  0  0  0  0  0  0  0  0  0  0  0
   -0.9352  -12.1491    0.0000 H   0  0  0  0  0  0  0  0  0  0  0  0
   -2.7939  -12.1139    0.0000 H   0  0  0  0  0  0  0  0  0  0  0  0
  1  2  2  3
  2  3  1  0
  2  4  1  0
  4  5  1  0
  5  6  1  0
  6  7  1  0
  7  8  1  1
  7  9  1  0
  9 10  1  0
 10 11  1  0
  7 12  1  0
 12 13  1  0
 13 14  1  0
 14 15  1  0
 15 16  1  0
 16 17  1  0
 17 18  1  0
 18 19  1  0
 19 20  1  0
 19 21  1  0
 21 22  1  0
 22 23  1  0
 23 24  1  0
 23 25  1  0
 25 26  1  0
 26 27  1  0
 27 28  1  0
 28 29  1  0
 29 30  1  0
 25 31  1  0
 31 32  1  0
 32 33  1  0
 33 34  1  0
 34 35  1  0
 35 36  1  0
 36 37  1  0
 37 38  1  0
 38 39  1  0
 37 40  1  0
 16 41  1  0
 41 42  1  0
 42 43  1  0
 43 44  1  0
 44 45  1  0
 45 12  1  0
 45 14  1  0
 40 17  1  0
 31 22  1  0
 29 27  1  0
  1 46  1  0
  1 47  1  0
  3 48  1  0
  3 49  1  0
  3 50  1  0
  4 51  1  0
  5 52  1  0
  5 53  1  0
  6 54  1  0
  6 55  1  0
  8 56  1  0
  8 57  1  0
  9 58  1  0
  9 59  1  0
 10 60  1  0
 10 61  1  0
 11 62  1  0
 12 63  1  6
 13 64  1  0
 14 65  1  6
 15 66  1  0
 15 67  1  0
 16 68  1  1
 17 69  1  6
 18 70  1  0
 18 71  1  0
 19 72  1  6
 21 73  1  0
 22 74  1  1
 23 75  1  6
 24 76  1  0
 24 77  1  0
 24 78  1  0
 25 79  1  1
 26 80  1  0
 26 81  1  0
 27 82  1  6
 28 83  1  0
 28 84  1  0
 29 85  1  1
 30 86  1  0
 30 87  1  0
 30 88  1  0
 31 89  1  1
 32 90  1  0
 32 91  1  0
 33 92  1  0
 33 93  1  0
 34 94  1  0
 34 95  1  0
 35 96  1  0
 35 97  1  0
 36 98  1  0
 36 99  1  0
 37100  1  1
 38101  1  0
 38102  1  0
 39103  1  0
 39104  1  0
 39105  1  0
 40106  1  0
 40107  1  0
 42108  1  0
 42109  1  0
 43110  1  0
 43111  1  0
 44112  1  0
 44113  1  0
 45114  1  1
M  END
$$$$
