
     RDKit          2D

 63 73  0  0  0  0  0  0  0  0999 V2000
  -11.7820   -7.5144    0.0000 C   0  0  0  0  0  0  0  0  0  0  0  0
  -12.4159   -6.1549    0.0000 C   0  0  0  0  0  0  0  0  0  0  0  0
  -11.1872   -5.2945    0.0000 C   0  0  0  0  0  0  0  0  0  0  0  0
  -10.5533   -3.9351    0.0000 C   0  0  0  0  0  0  0  0  0  0  0  0
   -9.1938   -4.5690    0.0000 C   0  0  0  0  0  0  0  0  0  0  0  0
   -7.8343   -5.2029    0.0000 C   0  0  0  0  0  0  0  0  0  0  0  0
   -6.4749   -5.8369    0.0000 N   0  0  0  0  0  0  0  0  0  0  0  0
   -5.6145   -7.0656    0.0000 C   0  0  0  0  0  0  0  0  0  0  0  0
   -4.9806   -5.7061    0.0000 C   0  0  0  0  0  0  0  0  0  0  0  0
   -3.4863   -5.5754    0.0000 N   0  0  0  0  0  0  0  0  0  0  0  0
   -4.3467   -4.3467    0.0000 C   0  0  0  0  0  0  0  0  0  0  0  0
   -3.2860   -3.2860    0.0000 N   0  0  0  0  0  0  0  0  0  0  0  0
   -2.8978   -1.8371    0.0000 C   0  0  0  0  0  0  0  0  0  0  0  0
   -1.8371   -2.8978    0.0000 C   0  0  0  0  0  0  0  0  0  0  0  0
   -1.4489   -1.4489    0.0000 C   0  0  0  0  0  0  0  0  0  0  0  0
   -0.0000   -1.0607    0.0000 C   0  0  0  0  0  0  0  0  0  0  0  0
    1.0607    0.0000    0.0000 O   0  0  0  0  0  0  0  0  0  0  0  0
    0.0000    1.0607    0.0000 C   0  0  0  0  0  0  0  0  0  0  0  0
   -1.0607    2.1213    0.0000 C   0  0  0  0  0  0  0  0  0  0  0  0
   -2.1213    3.1820    0.0000 O   0  0  0  0  0  0  0  0  0  0  0  0
   -2.1213    1.0607    0.0000 C   0  0  0  0  0  0  0  0  0  0  0  0
   -1.0607    0.0000    0.0000 C   0  0  0  0  0  0  0  0  0  0  0  0
  -11.9127   -3.3012    0.0000 C   0  0  0  0  0  0  0  0  0  0  0  0
  -11.2788   -1.9417    0.0000 O   0  0  0  0  0  0  0  0  0  0  0  0
  -12.1392   -0.7130    0.0000 C   0  0  0  0  0  0  0  0  0  0  0  0
  -13.3679   -1.5733    0.0000 C   0  0  0  0  0  0  0  0  0  0  0  0
  -10.9104    0.1474    0.0000 C   0  0  0  0  0  0  0  0  0  0  0  0
  -11.5444    1.5069    0.0000 C   0  0  0  0  0  0  0  0  0  0  0  0
  -10.6840    2.7356    0.0000 C   0  0  0  0  0  0  0  0  0  0  0  0
  -10.0501    1.3761    0.0000 C   0  0  0  0  0  0  0  0  0  0  0  0
  -12.5467   -4.6606    0.0000 N   0  0  0  0  0  0  0  0  0  0  0  0
  -11.1481   -8.8738    0.0000 H   0  0  0  0  0  0  0  0  0  0  0  0
  -10.4981   -7.0972    0.0000 H   0  0  0  0  0  0  0  0  0  0  0  0
  -13.1415   -8.1483    0.0000 H   0  0  0  0  0  0  0  0  0  0  0  0
  -13.8648   -6.5431    0.0000 H   0  0  0  0  0  0  0  0  0  0  0  0
  -10.4333   -5.9271    0.0000 H   0  0  0  0  0  0  0  0  0  0  0  0
   -9.9193   -2.5756    0.0000 H   0  0  0  0  0  0  0  0  0  0  0  0
   -9.5317   -5.6090    0.0000 H   0  0  0  0  0  0  0  0  0  0  0  0
   -8.5599   -3.2095    0.0000 H   0  0  0  0  0  0  0  0  0  0  0  0
   -7.2004   -3.8435    0.0000 H   0  0  0  0  0  0  0  0  0  0  0  0
   -8.4683   -6.5624    0.0000 H   0  0  0  0  0  0  0  0  0  0  0  0
   -6.6752   -8.1262    0.0000 H   0  0  0  0  0  0  0  0  0  0  0  0
   -4.3858   -7.9260    0.0000 H   0  0  0  0  0  0  0  0  0  0  0  0
   -2.1268   -6.2093    0.0000 H   0  0  0  0  0  0  0  0  0  0  0  0
   -5.5754   -3.4863    0.0000 H   0  0  0  0  0  0  0  0  0  0  0  0
   -3.9584   -0.7765    0.0000 H   0  0  0  0  0  0  0  0  0  0  0  0
   -0.7765   -3.9584    0.0000 H   0  0  0  0  0  0  0  0  0  0  0  0
    0.7500   -2.3597    0.0000 H   0  0  0  0  0  0  0  0  0  0  0  0
    1.0607    2.1213    0.0000 H   0  0  0  0  0  0  0  0  0  0  0  0
   -0.0000    3.1820    0.0000 H   0  0  0  0  0  0  0  0  0  0  0  0
   -1.7331    4.6309    0.0000 H   0  0  0  0  0  0  0  0  0  0  0  0
   -3.1820    0.0000    0.0000 H   0  0  0  0  0  0  0  0  0  0  0  0
   -3.1820    2.1213    0.0000 H   0  0  0  0  0  0  0  0  0  0  0  0
  -12.6709   -3.0548    0.0000 H   0  0  0  0  0  0  0  0  0  0  0  0
  -12.9995    0.5158    0.0000 H   0  0  0  0  0  0  0  0  0  0  0  0
  -14.5966   -2.4337    0.0000 H   0  0  0  0  0  0  0  0  0  0  0  0
  -14.2283   -0.3446    0.0000 H   0  0  0  0  0  0  0  0  0  0  0  0
  -13.1751   -2.3468    0.0000 H   0  0  0  0  0  0  0  0  0  0  0  0
   -9.8498   -0.9133    0.0000 H   0  0  0  0  0  0  0  0  0  0  0  0
  -13.0387    1.6376    0.0000 H   0  0  0  0  0  0  0  0  0  0  0  0
  -11.7447    3.7963    0.0000 H   0  0  0  0  0  0  0  0  0  0  0  0
   -9.4553    3.5960    0.0000 H   0  0  0  0  0  0  0  0  0  0  0  0
   -8.5558    1.2454    0.0000 H   0  0  0  0  0  0  0  0  0  0  0  0
  1  2  1  0
  2  3  1  0
  3  4  1  0
  4  5  1  0
  5  6  1  0
  6  7  1  0
  7  8  1  0
  8  9  1  0
  9 10  1  6
 10 11  1  0
 11 12  1  0
 12 13  1  0
 13 14  1  0
 14 15  1  0
 15 16  1  0
 16 17  1  0
 17 18  1  0
 18 19  1  0
 19 20  1  0
 19 21  1  0
 22 21  1  1
  4 23  1  0
 23 24  1  0
 24 25  1  0
 25 26  1  0
 25 27  1  0
 27 28  1  0
 28 29  1  0
 29 30  1  0
 23 31  1  0
 31  2  1  0
 31  3  1  0
  9  7  1  0
 14 12  1  0
 15 22  1  1
 30 27  1  0
 11  9  1  0
 15 13  1  0
 22 16  1  0
 30 28  1  0
 22 18  1  0
  1 32  1  0
  1 33  1  0
  1 34  1  0
  2 35  1  1
  3 36  1  6
  4 37  1  6
  5 38  1  0
  5 39  1  0
  6 40  1  0
  6 41  1  0
  8 42  1  0
  8 43  1  0
 10 44  1  0
 11 45  1  1
 13 46  1  6
 14 47  1  6
 16 48  1  1
 18 49  1  1
 19 50  1  1
 20 51  1  0
 21 52  1  0
 21 53  1  0
 23 54  1  1
 25 55  1  1
 26 56  1  0
 26 57  1  0
 26 58  1  0
 27 59  1  0
 28 60  1  6
 29 61  1  0
 29 62  1  0
 30 63  1  6
M  END
$$$$
