
     RDKit          2D

 62 65  0  0  0  0  0  0  0  0999 V2000
   -1.6572   -5.5981    0.0000 C   0  0  0  0  0  0  0  0  0  0  0  0
   -2.9563   -4.8481    0.0000 C   0  0  0  0  0  0  0  0  0  0  0  0
   -4.2553   -4.0981    0.0000 C   0  0  0  0  0  0  0  0  0  0  0  0
   -3.5053   -2.7990    0.0000 F   0  0  0  0  0  0  0  0  0  0  0  0
   -5.5543   -3.3481    0.0000 C   0  0  0  0  0  0  0  0  0  0  0  0
   -6.8534   -2.5981    0.0000 C   0  0  0  0  0  0  0  0  0  0  0  0
   -8.1524   -1.8481    0.0000 C   0  0  0  0  0  0  0  0  0  0  0  0
   -9.4514   -2.5981    0.0000 N   0  0  0  0  0  0  0  0  0  0  0  0
   -4.8043   -2.0490    0.0000 C   0  0  0  0  0  0  0  0  0  0  0  0
   -4.0543   -0.7500    0.0000 C   0  0  0  0  0  0  0  0  0  0  0  0
   -4.0543    0.7500    0.0000 N   0  0  0  0  0  0  0  0  0  0  0  0
   -2.9937    1.8107    0.0000 C   0  0  0  0  0  0  0  0  0  0  0  0
   -1.4937    1.8107    0.0000 C   0  0  0  0  0  0  0  0  0  0  0  0
   -1.8819    3.2595    0.0000 C   0  0  0  0  0  0  0  0  0  0  0  0
   -2.2701    4.7084    0.0000 C   0  0  0  0  0  0  0  0  0  0  0  0
   -0.9107    5.3424    0.0000 C   0  0  0  0  0  0  0  0  0  0  0  0
   -0.7799    6.8367    0.0000 C   0  0  0  0  0  0  0  0  0  0  0  0
   -2.1394    6.2027    0.0000 C   0  0  0  0  0  0  0  0  0  0  0  0
   -0.4330    0.7500    0.0000 C   0  0  0  0  0  0  0  0  0  0  0  0
    0.8660    0.0000    0.0000 C   0  0  0  0  0  0  0  0  0  0  0  0
   -0.4330   -0.7500    0.0000 C   0  0  0  0  0  0  0  0  0  0  0  0
   -1.4937   -1.8107    0.0000 C   0  0  0  0  0  0  0  0  0  0  0  0
   -2.9937   -1.8107    0.0000 C   0  0  0  0  0  0  0  0  0  0  0  0
   -2.6054   -3.2595    0.0000 C   0  0  0  0  0  0  0  0  0  0  0  0
   -2.2172   -4.7084    0.0000 C   0  0  0  0  0  0  0  0  0  0  0  0
   -0.3582   -6.3481    0.0000 H   0  0  0  0  0  0  0  0  0  0  0  0
   -2.4072   -6.8971    0.0000 H   0  0  0  0  0  0  0  0  0  0  0  0
   -0.7545   -4.4001    0.0000 H   0  0  0  0  0  0  0  0  0  0  0  0
   -3.4360   -5.4847    0.0000 H   0  0  0  0  0  0  0  0  0  0  0  0
   -3.2677   -5.5819    0.0000 H   0  0  0  0  0  0  0  0  0  0  0  0
   -5.0053   -5.3971    0.0000 H   0  0  0  0  0  0  0  0  0  0  0  0
   -6.3043   -4.6471    0.0000 H   0  0  0  0  0  0  0  0  0  0  0  0
   -6.2673   -1.2173    0.0000 H   0  0  0  0  0  0  0  0  0  0  0  0
   -7.6034   -3.8971    0.0000 H   0  0  0  0  0  0  0  0  0  0  0  0
   -8.1524   -0.3481    0.0000 H   0  0  0  0  0  0  0  0  0  0  0  0
  -10.7505   -1.8481    0.0000 H   0  0  0  0  0  0  0  0  0  0  0  0
   -3.5053   -2.7990    0.0000 H   0  0  0  0  0  0  0  0  0  0  0  0
   -6.0023   -1.1463    0.0000 H   0  0  0  0  0  0  0  0  0  0  0  0
   -5.5032   -0.3618    0.0000 H   0  0  0  0  0  0  0  0  0  0  0  0
   -5.4402    1.3240    0.0000 H   0  0  0  0  0  0  0  0  0  0  0  0
   -4.2927    2.5607    0.0000 H   0  0  0  0  0  0  0  0  0  0  0  0
   -3.1506    3.3024    0.0000 H   0  0  0  0  0  0  0  0  0  0  0  0
   -0.1946    2.5607    0.0000 H   0  0  0  0  0  0  0  0  0  0  0  0
   -0.4330    3.6478    0.0000 H   0  0  0  0  0  0  0  0  0  0  0  0
   -3.3673    3.0508    0.0000 H   0  0  0  0  0  0  0  0  0  0  0  0
   -3.7644    4.5777    0.0000 H   0  0  0  0  0  0  0  0  0  0  0  0
    0.3181    4.4820    0.0000 H   0  0  0  0  0  0  0  0  0  0  0  0
    0.7144    6.9674    0.0000 H   0  0  0  0  0  0  0  0  0  0  0  0
   -1.1682    8.2855    0.0000 H   0  0  0  0  0  0  0  0  0  0  0  0
   -3.3681    7.0631    0.0000 H   0  0  0  0  0  0  0  0  0  0  0  0
    0.4801    1.9400    0.0000 H   0  0  0  0  0  0  0  0  0  0  0  0
    1.8302    1.1491    0.0000 H   0  0  0  0  0  0  0  0  0  0  0  0
    1.8302   -1.1491    0.0000 H   0  0  0  0  0  0  0  0  0  0  0  0
    0.4801   -1.9400    0.0000 H   0  0  0  0  0  0  0  0  0  0  0  0
   -0.1946   -2.5607    0.0000 H   0  0  0  0  0  0  0  0  0  0  0  0
   -1.3368   -3.3024    0.0000 H   0  0  0  0  0  0  0  0  0  0  0  0
   -4.0726   -2.8527    0.0000 H   0  0  0  0  0  0  0  0  0  0  0  0
   -3.9173   -3.9868    0.0000 H   0  0  0  0  0  0  0  0  0  0  0  0
   -1.1200   -3.0508    0.0000 H   0  0  0  0  0  0  0  0  0  0  0  0
   -1.4899   -6.0203    0.0000 H   0  0  0  0  0  0  0  0  0  0  0  0
   -3.5291   -5.4357    0.0000 H   0  0  0  0  0  0  0  0  0  0  0  0
   -0.8265   -4.1465    0.0000 H   0  0  0  0  0  0  0  0  0  0  0  0
  1  2  1  0
  2  3  1  0
  3  4  1  0
  3  5  1  0
  5  6  1  0
  6  7  1  0
  7  8  2  3
  5  9  1  0
  9 10  1  0
 10 11  1  0
 11 12  1  0
 12 13  1  0
 13 14  1  0
 14 15  1  0
 15 16  1  0
 16 17  1  0
 17 18  1  0
 13 19  1  0
 19 20  1  0
 20 21  1  0
 21 22  1  0
 22 23  1  0
 23 24  1  0
 24 25  1  0
 23 10  1  0
 18 15  1  0
 21 19  1  0
 18 16  1  0
  1 26  1  0
  1 27  1  0
  1 28  1  0
  2 29  1  0
  2 30  1  0
  3 31  1  6
  5 32  1  1
  6 33  1  0
  6 34  1  0
  7 35  1  0
  8 36  1  0
  9 37  1  0
  9 38  1  0
 10 39  1  1
 11 40  1  0
 12 41  1  0
 12 42  1  0
 13 43  1  6
 14 44  1  0
 14 45  1  0
 15 46  1  1
 16 47  1  1
 17 48  1  0
 17 49  1  0
 18 50  1  1
 19 51  1  6
 20 52  1  0
 20 53  1  0
 21 54  1  6
 22 55  1  0
 22 56  1  0
 23 57  1  1
 24 58  1  0
 24 59  1  0
 25 60  1  0
 25 61  1  0
 25 62  1  0
M  END
$$$$
