
     RDKit          2D

113120  0  0  0  0  0  0  0  0999 V2000
    0.0738    7.3766    0.0000 C   0  0  0  0  0  0  0  0  0  0  0  0
    0.3084    5.8951    0.0000 C   0  0  0  0  0  0  0  0  0  0  0  0
   -0.7522    4.8344    0.0000 C   0  0  0  0  0  0  0  0  0  0  0  0
   -0.0712    3.4979    0.0000 C   0  0  0  0  0  0  0  0  0  0  0  0
    0.3170    2.0490    0.0000 C   0  0  0  0  0  0  0  0  0  0  0  0
    1.6160    1.2990    0.0000 C   0  0  0  0  0  0  0  0  0  0  0  0
    0.8660    0.0000    0.0000 C   0  0  0  0  0  0  0  0  0  0  0  0
    0.9399    1.1179    0.0000 C   0  0  0  0  0  0  0  0  0  0  0  0
    2.3660    2.5981    0.0000 C   0  0  0  0  0  0  0  0  0  0  0  0
    3.1160    3.8971    0.0000 C   0  0  0  0  0  0  0  0  0  0  0  0
    3.8660    5.1962    0.0000 C   0  0  0  0  0  0  0  0  0  0  0  0
    4.6160    6.4952    0.0000 C   0  0  0  0  0  0  0  0  0  0  0  0
    5.3660    7.7942    0.0000 C   0  0  0  0  0  0  0  0  0  0  0  0
    6.1160    9.0933    0.0000 C   0  0  0  0  0  0  0  0  0  0  0  0
    4.4151    3.1471    0.0000 C   0  0  0  0  0  0  0  0  0  0  0  0
    5.7141    2.3971    0.0000 C   0  0  0  0  0  0  0  0  0  0  0  0
    5.1651    4.4462    0.0000 C   0  0  0  0  0  0  0  0  0  0  0  0
    5.9151    5.7452    0.0000 C   0  0  0  0  0  0  0  0  0  0  0  0
    6.4641    3.6962    0.0000 C   0  0  0  0  0  0  0  0  0  0  0  0
    3.8660    5.1962    0.0000 O   0  0  0  0  0  0  0  0  0  0  0  0
   -0.4330    0.7500    0.0000 C   0  0  0  0  0  0  0  0  0  0  0  0
   -0.4330   -0.7500    0.0000 C   0  0  0  0  0  0  0  0  0  0  0  0
   -1.9330   -0.7500    0.0000 C   0  0  0  0  0  0  0  0  0  0  0  0
   -2.6830   -2.0490    0.0000 C   0  0  0  0  0  0  0  0  0  0  0  0
   -1.9330   -3.3481    0.0000 C   0  0  0  0  0  0  0  0  0  0  0  0
   -0.4330   -3.3481    0.0000 C   0  0  0  0  0  0  0  0  0  0  0  0
    0.3170   -2.0490    0.0000 C   0  0  0  0  0  0  0  0  0  0  0  0
    1.4661   -1.0849    0.0000 C   0  0  0  0  0  0  0  0  0  0  0  0
    1.4103    3.7326    0.0000 C   0  0  0  0  0  0  0  0  0  0  0  0
    1.6449    5.2141    0.0000 C   0  0  0  0  0  0  0  0  0  0  0  0
    3.1265    5.4488    0.0000 C   0  0  0  0  0  0  0  0  0  0  0  0
    3.8075    4.1123    0.0000 C   0  0  0  0  0  0  0  0  0  0  0  0
    4.1957    2.6634    0.0000 C   0  0  0  0  0  0  0  0  0  0  0  0
    4.0650    1.1691    0.0000 C   0  0  0  0  0  0  0  0  0  0  0  0
    3.9342   -0.3252    0.0000 C   0  0  0  0  0  0  0  0  0  0  0  0
    5.4114   -0.0647    0.0000 C   0  0  0  0  0  0  0  0  0  0  0  0
    6.6402   -0.9251    0.0000 C   0  0  0  0  0  0  0  0  0  0  0  0
    6.9006   -2.4023    0.0000 C   0  0  0  0  0  0  0  0  0  0  0  0
    6.0403   -3.6311    0.0000 O   0  0  0  0  0  0  0  0  0  0  0  0
    4.5631   -3.8915    0.0000 C   0  0  0  0  0  0  0  0  0  0  0  0
    3.3343   -3.0312    0.0000 C   0  0  0  0  0  0  0  0  0  0  0  0
    1.8400   -2.9004    0.0000 C   0  0  0  0  0  0  0  0  0  0  0  0
    2.8213   -4.4407    0.0000 O   0  0  0  0  0  0  0  0  0  0  0  0
    3.0739   -1.5539    0.0000 C   0  0  0  0  0  0  0  0  0  0  0  0
    2.7468    3.0516    0.0000 C   0  0  0  0  0  0  0  0  0  0  0  0
    1.2395    8.3206    0.0000 H   0  0  0  0  0  0  0  0  0  0  0  0
   -1.3266    7.9142    0.0000 H   0  0  0  0  0  0  0  0  0  0  0  0
   -2.0102    4.0175    0.0000 H   0  0  0  0  0  0  0  0  0  0  0  0
   -1.6962    6.0002    0.0000 H   0  0  0  0  0  0  0  0  0  0  0  0
   -1.4716    2.9604    0.0000 H   0  0  0  0  0  0  0  0  0  0  0  0
    3.0579    0.8857    0.0000 H   0  0  0  0  0  0  0  0  0  0  0  0
    2.8882    2.0938    0.0000 H   0  0  0  0  0  0  0  0  0  0  0  0
    2.9151    0.5490    0.0000 H   0  0  0  0  0  0  0  0  0  0  0  0
    3.3099    1.4323    0.0000 H   0  0  0  0  0  0  0  0  0  0  0  0
    1.2871    3.6401    0.0000 H   0  0  0  0  0  0  0  0  0  0  0  0
    2.0371    4.9392    0.0000 H   0  0  0  0  0  0  0  0  0  0  0  0
    5.3476    4.9616    0.0000 H   0  0  0  0  0  0  0  0  0  0  0  0
    2.7871    6.2382    0.0000 H   0  0  0  0  0  0  0  0  0  0  0  0
    6.0579    6.0818    0.0000 H   0  0  0  0  0  0  0  0  0  0  0  0
    3.5371    7.5372    0.0000 H   0  0  0  0  0  0  0  0  0  0  0  0
    4.0670    8.5442    0.0000 H   0  0  0  0  0  0  0  0  0  0  0  0
    6.7468    7.2082    0.0000 H   0  0  0  0  0  0  0  0  0  0  0  0
    6.8660   10.3923    0.0000 H   0  0  0  0  0  0  0  0  0  0  0  0
    7.4151    8.3433    0.0000 H   0  0  0  0  0  0  0  0  0  0  0  0
    4.8170    9.8433    0.0000 H   0  0  0  0  0  0  0  0  0  0  0  0
    3.5123    1.9492    0.0000 H   0  0  0  0  0  0  0  0  0  0  0  0
    7.0949    1.8111    0.0000 H   0  0  0  0  0  0  0  0  0  0  0  0
    6.7561    3.4761    0.0000 H   0  0  0  0  0  0  0  0  0  0  0  0
    4.9641    1.0981    0.0000 H   0  0  0  0  0  0  0  0  0  0  0  0
    6.8178    6.9431    0.0000 H   0  0  0  0  0  0  0  0  0  0  0  0
    7.3570    5.3318    0.0000 H   0  0  0  0  0  0  0  0  0  0  0  0
    5.1203    7.0173    0.0000 H   0  0  0  0  0  0  0  0  0  0  0  0
    7.7631    2.9462    0.0000 H   0  0  0  0  0  0  0  0  0  0  0  0
    7.5061    4.7751    0.0000 H   0  0  0  0  0  0  0  0  0  0  0  0
    7.2141    4.9952    0.0000 H   0  0  0  0  0  0  0  0  0  0  0  0
    3.1617    6.5205    0.0000 H   0  0  0  0  0  0  0  0  0  0  0  0
   -1.8238    1.3119    0.0000 H   0  0  0  0  0  0  0  0  0  0  0  0
   -3.3426   -0.2370    0.0000 H   0  0  0  0  0  0  0  0  0  0  0  0
   -1.8545    0.7479    0.0000 H   0  0  0  0  0  0  0  0  0  0  0  0
   -3.8321   -3.0132    0.0000 H   0  0  0  0  0  0  0  0  0  0  0  0
   -3.8321   -1.0849    0.0000 H   0  0  0  0  0  0  0  0  0  0  0  0
   -1.6725   -4.8253    0.0000 H   0  0  0  0  0  0  0  0  0  0  0  0
   -3.3426   -3.8611    0.0000 H   0  0  0  0  0  0  0  0  0  0  0  0
    0.9035   -4.0291    0.0000 H   0  0  0  0  0  0  0  0  0  0  0  0
   -0.6935   -4.8253    0.0000 H   0  0  0  0  0  0  0  0  0  0  0  0
    1.0441   -3.3610    0.0000 H   0  0  0  0  0  0  0  0  0  0  0  0
    2.6151   -0.1207    0.0000 H   0  0  0  0  0  0  0  0  0  0  0  0
    2.2830   -2.3429    0.0000 H   0  0  0  0  0  0  0  0  0  0  0  0
    0.8086    0.2634    0.0000 H   0  0  0  0  0  0  0  0  0  0  0  0
    1.1756    2.2510    0.0000 H   0  0  0  0  0  0  0  0  0  0  0  0
    1.6973    6.7132    0.0000 H   0  0  0  0  0  0  0  0  0  0  0  0
    2.7382    6.8977    0.0000 H   0  0  0  0  0  0  0  0  0  0  0  0
    4.2411    6.4525    0.0000 H   0  0  0  0  0  0  0  0  0  0  0  0
    5.1319    4.8165    0.0000 H   0  0  0  0  0  0  0  0  0  0  0  0
    5.6772    2.4286    0.0000 H   0  0  0  0  0  0  0  0  0  0  0  0
    5.5592    1.0383    0.0000 H   0  0  0  0  0  0  0  0  0  0  0  0
    2.5977    1.4810    0.0000 H   0  0  0  0  0  0  0  0  0  0  0  0
    2.5247    0.1878    0.0000 H   0  0  0  0  0  0  0  0  0  0  0  0
    6.5605    0.8994    0.0000 H   0  0  0  0  0  0  0  0  0  0  0  0
    5.1253    1.4077    0.0000 H   0  0  0  0  0  0  0  0  0  0  0  0
    8.1392   -0.8727    0.0000 H   0  0  0  0  0  0  0  0  0  0  0  0
    7.3212    0.4114    0.0000 H   0  0  0  0  0  0  0  0  0  0  0  0
    7.8648   -3.5514    0.0000 H   0  0  0  0  0  0  0  0  0  0  0  0
    8.3272   -1.9388    0.0000 H   0  0  0  0  0  0  0  0  0  0  0  0
    3.8359   -5.2035    0.0000 H   0  0  0  0  0  0  0  0  0  0  0  0
    5.1970   -5.2510    0.0000 H   0  0  0  0  0  0  0  0  0  0  0  0
    0.3585   -3.1352    0.0000 H   0  0  0  0  0  0  0  0  0  0  0  0
    1.8924   -4.3995    0.0000 H   0  0  0  0  0  0  0  0  0  0  0  0
    2.1519   -1.4332    0.0000 H   0  0  0  0  0  0  0  0  0  0  0  0
    3.6382   -5.6987    0.0000 H   0  0  0  0  0  0  0  0  0  0  0  0
    2.1097   -0.4049    0.0000 H   0  0  0  0  0  0  0  0  0  0  0  0
    1.6473   -2.0174    0.0000 H   0  0  0  0  0  0  0  0  0  0  0  0
    2.7469    1.5516    0.0000 H   0  0  0  0  0  0  0  0  0  0  0  0
  1  2  2  3
  2  3  1  0
  3  4  1  0
  4  5  1  0
  5  6  1  0
  6  7  1  0
  7  8  1  0
  8  9  1  0
  9 10  1  0
 10 11  1  0
 11 12  1  0
 12 13  1  0
 13 14  1  0
 10 15  1  0
 15 16  1  0
 15 17  1  0
 17 18  1  0
 17 19  1  0
 17 20  1  0
  7 21  1  0
 21 22  1  0
 22 23  1  0
 23 24  1  0
 24 25  1  0
 25 26  1  0
 26 27  1  0
 27 28  1  0
  4 29  1  0
 29 30  1  0
 30 31  1  0
 31 32  1  0
 32 33  1  0
 33 34  1  0
 34 35  1  0
 35 36  1  0
 36 37  1  0
 37 38  1  0
 38 39  1  0
 39 40  1  0
 40 41  1  0
 41 42  1  0
 41 43  1  0
 41 44  1  0
 33 45  1  0
 30  2  1  0
 45 32  1  0
  8  5  1  0
 27 22  1  0
 45 29  1  0
 21  5  1  0
 44 35  1  0
 22  7  1  0
  1 46  1  0
  1 47  1  0
  3 48  1  0
  3 49  1  0
  4 50  1  0
  6 51  1  0
  6 52  1  0
  8 53  1  0
  9 54  1  0
  9 55  1  0
 10 56  1  0
 11 57  1  0
 11 58  1  0
 12 59  1  0
 12 60  1  0
 13 61  1  0
 13 62  1  0
 14 63  1  0
 14 64  1  0
 14 65  1  0
 15 66  1  0
 16 67  1  0
 16 68  1  0
 16 69  1  0
 18 70  1  0
 18 71  1  0
 18 72  1  0
 19 73  1  0
 19 74  1  0
 19 75  1  0
 20 76  1  0
 21 77  1  0
 23 78  1  0
 23 79  1  0
 24 80  1  0
 24 81  1  0
 25 82  1  0
 25 83  1  0
 26 84  1  0
 26 85  1  0
 27 86  1  0
 28 87  1  0
 28 88  1  0
 28 89  1  0
 29 90  1  0
 30 91  1  0
 31 92  1  0
 31 93  1  0
 32 94  1  0
 33 95  1  0
 34 96  1  0
 34 97  1  0
 35 98  1  0
 36 99  1  0
 36100  1  0
 37101  1  0
 37102  1  0
 38103  1  0
 38104  1  0
 40105  1  0
 40106  1  0
 42107  1  0
 42108  1  0
 42109  1  0
 43110  1  0
 44111  1  0
 44112  1  0
 45113  1  0
M  END
$$$$
