
     RDKit          2D

 27 30  0  0  0  0  0  0  0  0999 V2000
   -5.4725   -0.1386    0.0000 C   0  0  0  0  0  0  0  0  0  0  0  0
   -3.9953   -0.3991    0.0000 C   0  0  0  0  0  0  0  0  0  0  0  0
   -3.9953   -1.8991    0.0000 C   0  0  0  0  0  0  0  0  0  0  0  0
   -2.6962   -1.1491    0.0000 C   0  0  0  0  0  0  0  0  0  0  0  0
   -1.7321    0.0000    0.0000 C   0  0  0  0  0  0  0  0  0  0  0  0
   -0.4330   -0.7500    0.0000 C   0  0  0  0  0  0  0  0  0  0  0  0
   -1.9330   -0.7500    0.0000 C   0  0  0  0  0  0  0  0  0  0  0  0
   -1.9330    0.7500    0.0000 C   0  0  0  0  0  0  0  0  0  0  0  0
   -0.4330    0.7500    0.0000 C   0  0  0  0  0  0  0  0  0  0  0  0
    0.8660    0.0000    0.0000 C   0  0  0  0  0  0  0  0  0  0  0  0
    1.8302    1.1491    0.0000 C   0  0  0  0  0  0  0  0  0  0  0  0
   -6.9497    0.1219    0.0000 H   0  0  0  0  0  0  0  0  0  0  0  0
   -5.8672   -1.4296    0.0000 H   0  0  0  0  0  0  0  0  0  0  0  0
   -5.2120    1.3386    0.0000 H   0  0  0  0  0  0  0  0  0  0  0  0
   -3.8386    1.0927    0.0000 H   0  0  0  0  0  0  0  0  0  0  0  0
   -3.4822   -3.3086    0.0000 H   0  0  0  0  0  0  0  0  0  0  0  0
   -5.2863   -2.2938    0.0000 H   0  0  0  0  0  0  0  0  0  0  0  0
   -2.2621   -1.8176    0.0000 H   0  0  0  0  0  0  0  0  0  0  0  0
   -2.6962    1.1491    0.0000 H   0  0  0  0  0  0  0  0  0  0  0  0
   -3.1119   -0.4560    0.0000 H   0  0  0  0  0  0  0  0  0  0  0  0
   -1.8358   -1.5412    0.0000 H   0  0  0  0  0  0  0  0  0  0  0  0
   -1.9330    2.2500    0.0000 H   0  0  0  0  0  0  0  0  0  0  0  0
   -3.3884    1.1130    0.0000 H   0  0  0  0  0  0  0  0  0  0  0  0
    1.8302   -1.1491    0.0000 H   0  0  0  0  0  0  0  0  0  0  0  0
    2.7944    2.2981    0.0000 H   0  0  0  0  0  0  0  0  0  0  0  0
    2.9793    0.1849    0.0000 H   0  0  0  0  0  0  0  0  0  0  0  0
    0.6811    2.1132    0.0000 H   0  0  0  0  0  0  0  0  0  0  0  0
  1  2  1  0
  2  3  1  0
  3  4  1  0
  4  5  1  0
  5  6  1  0
  6  7  1  0
  7  8  1  0
  8  9  1  0
  9 10  1  0
 10 11  1  0
  4  2  1  0
  9  5  1  0
  9  6  1  0
 10  6  1  0
  1 12  1  0
  1 13  1  0
  1 14  1  0
  2 15  1  0
  3 16  1  0
  3 17  1  0
  4 18  1  0
  5 19  1  0
  7 20  1  0
  7 21  1  0
  8 22  1  0
  8 23  1  0
 10 24  1  0
 11 25  1  0
 11 26  1  0
 11 27  1  0
M  END
$$$$
