
     RDKit          2D

 24 23  0  0  0  0  0  0  0  0999 V2000
    0.0000    0.0000    0.0000 C   0  0  0  0  0  0  0  0  0  0  0  0
    1.2990    0.7500    0.0000 C   0  0  0  0  0  0  0  0  0  0  0  0
    2.5981   -0.0000    0.0000 N   0  0  0  0  0  0  0  0  0  0  0  0
    3.8971    0.7500    0.0000 C   0  0  0  0  0  0  0  0  0  0  0  0
    2.5981   -1.5000    0.0000 C   0  0  0  0  0  0  0  0  0  0  0  0
    2.5981   -3.0000    0.0000 C   0  0  0  0  0  0  0  0  0  0  0  0
    2.5981   -4.5000    0.0000 C   0  0  0  0  0  0  0  0  0  0  0  0
    1.0981   -1.5000    0.0000 O   0  0  0  0  0  0  0  0  0  0  0  0
    0.3481   -2.7990    0.0000 C   0  0  0  0  0  0  0  0  0  0  0  0
   -1.2990    0.7500    0.0000 H   0  0  0  0  0  0  0  0  0  0  0  0
   -0.0000   -1.5000    0.0000 H   0  0  0  0  0  0  0  0  0  0  0  0
    1.2990    2.2500    0.0000 H   0  0  0  0  0  0  0  0  0  0  0  0
    5.1962    1.5000    0.0000 H   0  0  0  0  0  0  0  0  0  0  0  0
    4.6471   -0.5490    0.0000 H   0  0  0  0  0  0  0  0  0  0  0  0
    3.1471    2.0490    0.0000 H   0  0  0  0  0  0  0  0  0  0  0  0
    4.0981   -1.5000    0.0000 H   0  0  0  0  0  0  0  0  0  0  0  0
    1.8539   -3.2857    0.0000 H   0  0  0  0  0  0  0  0  0  0  0  0
    4.0981   -3.0000    0.0000 H   0  0  0  0  0  0  0  0  0  0  0  0
    2.5981   -6.0000    0.0000 H   0  0  0  0  0  0  0  0  0  0  0  0
    4.0981   -4.5000    0.0000 H   0  0  0  0  0  0  0  0  0  0  0  0
    1.0981   -4.5000    0.0000 H   0  0  0  0  0  0  0  0  0  0  0  0
   -0.4019   -4.0981    0.0000 H   0  0  0  0  0  0  0  0  0  0  0  0
   -0.9510   -2.0490    0.0000 H   0  0  0  0  0  0  0  0  0  0  0  0
    0.9847   -3.2788    0.0000 H   0  0  0  0  0  0  0  0  0  0  0  0
  1  2  2  3
  2  3  1  0
  3  4  1  0
  3  5  1  0
  5  6  1  0
  6  7  1  0
  5  8  1  0
  8  9  1  0
  1 10  1  0
  1 11  1  0
  2 12  1  0
  4 13  1  0
  4 14  1  0
  4 15  1  0
  5 16  1  6
  6 17  1  0
  6 18  1  0
  7 19  1  0
  7 20  1  0
  7 21  1  0
  9 22  1  0
  9 23  1  0
  9 24  1  0
M  END
$$$$
