
     RDKit          2D

 95 99  0  0  0  0  0  0  0  0999 V2000
    2.9654    0.8401    0.0000 C   0  0  0  0  0  0  0  0  0  0  0  0
    2.2844    2.1766    0.0000 C   0  0  0  0  0  0  0  0  0  0  0  0
    0.8578    2.6401    0.0000 C   0  0  0  0  0  0  0  0  0  0  0  0
    0.3943    1.2135    0.0000 C   0  0  0  0  0  0  0  0  0  0  0  0
    1.2760   -0.0000    0.0000 C   0  0  0  0  0  0  0  0  0  0  0  0
    0.3943   -1.2135    0.0000 C   0  0  0  0  0  0  0  0  0  0  0  0
   -1.0323   -0.7500    0.0000 C   0  0  0  0  0  0  0  0  0  0  0  0
   -1.0323    0.7500    0.0000 C   0  0  0  0  0  0  0  0  0  0  0  0
   -1.9140   -0.4635    0.0000 C   0  0  0  0  0  0  0  0  0  0  0  0
   -3.0287    0.5402    0.0000 C   0  0  0  0  0  0  0  0  0  0  0  0
   -1.0323   -1.6771    0.0000 C   0  0  0  0  0  0  0  0  0  0  0  0
   -2.3313   -2.4271    0.0000 C   0  0  0  0  0  0  0  0  0  0  0  0
    1.3213    4.0667    0.0000 C   0  0  0  0  0  0  0  0  0  0  0  0
    2.7479    3.6032    0.0000 C   0  0  0  0  0  0  0  0  0  0  0  0
    3.5649    4.8612    0.0000 C   0  0  0  0  0  0  0  0  0  0  0  0
    4.2459    3.5247    0.0000 C   0  0  0  0  0  0  0  0  0  0  0  0
    5.6803    3.9632    0.0000 C   0  0  0  0  0  0  0  0  0  0  0  0
    6.1189    2.5288    0.0000 C   0  0  0  0  0  0  0  0  0  0  0  0
    6.5575    1.0943    0.0000 F   0  0  0  0  0  0  0  0  0  0  0  0
    7.5534    2.9673    0.0000 C   0  0  0  0  0  0  0  0  0  0  0  0
    8.9878    3.4059    0.0000 C   0  0  0  0  0  0  0  0  0  0  0  0
   10.4223    3.8444    0.0000 C   0  0  0  0  0  0  0  0  0  0  0  0
   11.8567    4.2830    0.0000 C   0  0  0  0  0  0  0  0  0  0  0  0
   10.8608    2.4100    0.0000 C   0  0  0  0  0  0  0  0  0  0  0  0
    7.1148    4.4018    0.0000 C   0  0  0  0  0  0  0  0  0  0  0  0
    6.6762    5.8362    0.0000 C   0  0  0  0  0  0  0  0  0  0  0  0
    8.1107    6.2748    0.0000 O   0  0  0  0  0  0  0  0  0  0  0  0
    6.2377    7.2707    0.0000 C   0  0  0  0  0  0  0  0  0  0  0  0
    5.7991    8.7052    0.0000 C   0  0  0  0  0  0  0  0  0  0  0  0
    4.3647    8.2666    0.0000 O   0  0  0  0  0  0  0  0  0  0  0  0
    5.3606   10.1396    0.0000 C   0  0  0  0  0  0  0  0  0  0  0  0
    4.9220   11.5741    0.0000 C   0  0  0  0  0  0  0  0  0  0  0  0
    4.4834   13.0085    0.0000 C   0  0  0  0  0  0  0  0  0  0  0  0
    4.0449   14.4430    0.0000 C   0  0  0  0  0  0  0  0  0  0  0  0
    3.6063   15.8774    0.0000 C   0  0  0  0  0  0  0  0  0  0  0  0
    3.1678   17.3119    0.0000 C   0  0  0  0  0  0  0  0  0  0  0  0
    2.1719   15.4389    0.0000 C   0  0  0  0  0  0  0  0  0  0  0  0
    0.7374   15.0003    0.0000 C   0  0  0  0  0  0  0  0  0  0  0  0
    4.4633    0.7616    0.0000 H   0  0  0  0  0  0  0  0  0  0  0  0
    2.6160    0.1236    0.0000 H   0  0  0  0  0  0  0  0  0  0  0  0
   -0.5688    3.1036    0.0000 H   0  0  0  0  0  0  0  0  0  0  0  0
    2.0672   -0.0972    0.0000 H   0  0  0  0  0  0  0  0  0  0  0  0
    0.8578   -2.6401    0.0000 H   0  0  0  0  0  0  0  0  0  0  0  0
   -1.6899   -2.0982    0.0000 H   0  0  0  0  0  0  0  0  0  0  0  0
   -2.5321   -0.7762    0.0000 H   0  0  0  0  0  0  0  0  0  0  0  0
   -2.1293    1.7730    0.0000 H   0  0  0  0  0  0  0  0  0  0  0  0
   -3.1427   -1.3239    0.0000 H   0  0  0  0  0  0  0  0  0  0  0  0
   -4.1434    1.5439    0.0000 H   0  0  0  0  0  0  0  0  0  0  0  0
   -4.0324   -0.5745    0.0000 H   0  0  0  0  0  0  0  0  0  0  0  0
   -2.1684    1.7689    0.0000 H   0  0  0  0  0  0  0  0  0  0  0  0
   -0.4222   -3.0474    0.0000 H   0  0  0  0  0  0  0  0  0  0  0  0
   -3.6304   -3.1771    0.0000 H   0  0  0  0  0  0  0  0  0  0  0  0
   -1.5813   -3.7261    0.0000 H   0  0  0  0  0  0  0  0  0  0  0  0
   -3.3734   -1.3481    0.0000 H   0  0  0  0  0  0  0  0  0  0  0  0
   -0.1052    4.5302    0.0000 H   0  0  0  0  0  0  0  0  0  0  0  0
    1.6075    5.5391    0.0000 H   0  0  0  0  0  0  0  0  0  0  0  0
    2.6007    6.0103    0.0000 H   0  0  0  0  0  0  0  0  0  0  0  0
    4.5088    6.0269    0.0000 H   0  0  0  0  0  0  0  0  0  0  0  0
    4.2458    2.0247    0.0000 H   0  0  0  0  0  0  0  0  0  0  0  0
    5.2418    5.3977    0.0000 H   0  0  0  0  0  0  0  0  0  0  0  0
    4.7486    1.9186    0.0000 H   0  0  0  0  0  0  0  0  0  0  0  0
    7.9919    1.5329    0.0000 H   0  0  0  0  0  0  0  0  0  0  0  0
    9.2482    1.9287    0.0000 H   0  0  0  0  0  0  0  0  0  0  0  0
    8.7274    4.8831    0.0000 H   0  0  0  0  0  0  0  0  0  0  0  0
    9.9837    5.2789    0.0000 H   0  0  0  0  0  0  0  0  0  0  0  0
   13.2912    4.7216    0.0000 H   0  0  0  0  0  0  0  0  0  0  0  0
   11.4182    5.7175    0.0000 H   0  0  0  0  0  0  0  0  0  0  0  0
   12.4669    2.9127    0.0000 H   0  0  0  0  0  0  0  0  0  0  0  0
   11.2994    0.9755    0.0000 H   0  0  0  0  0  0  0  0  0  0  0  0
   12.3380    2.6704    0.0000 H   0  0  0  0  0  0  0  0  0  0  0  0
    9.4905    1.7998    0.0000 H   0  0  0  0  0  0  0  0  0  0  0  0
    8.4851    5.0119    0.0000 H   0  0  0  0  0  0  0  0  0  0  0  0
    5.1783    5.7578    0.0000 H   0  0  0  0  0  0  0  0  0  0  0  0
    8.6238    7.6843    0.0000 H   0  0  0  0  0  0  0  0  0  0  0  0
    7.6080    7.8808    0.0000 H   0  0  0  0  0  0  0  0  0  0  0  0
    4.8032    6.8321    0.0000 H   0  0  0  0  0  0  0  0  0  0  0  0
    7.2336    9.1437    0.0000 H   0  0  0  0  0  0  0  0  0  0  0  0
    3.1511    9.1482    0.0000 H   0  0  0  0  0  0  0  0  0  0  0  0
    6.7950   10.5782    0.0000 H   0  0  0  0  0  0  0  0  0  0  0  0
    3.8833    9.8792    0.0000 H   0  0  0  0  0  0  0  0  0  0  0  0
    6.3565   12.0126    0.0000 H   0  0  0  0  0  0  0  0  0  0  0  0
    3.4875   11.1355    0.0000 H   0  0  0  0  0  0  0  0  0  0  0  0
    3.0490   12.5700    0.0000 H   0  0  0  0  0  0  0  0  0  0  0  0
    5.9179   13.4471    0.0000 H   0  0  0  0  0  0  0  0  0  0  0  0
    5.4793   14.8815    0.0000 H   0  0  0  0  0  0  0  0  0  0  0  0
    2.6746   13.8328    0.0000 H   0  0  0  0  0  0  0  0  0  0  0  0
    5.0408   16.3160    0.0000 H   0  0  0  0  0  0  0  0  0  0  0  0
    2.7292   18.7464    0.0000 H   0  0  0  0  0  0  0  0  0  0  0  0
    4.6022   17.7505    0.0000 H   0  0  0  0  0  0  0  0  0  0  0  0
    1.6906   17.0515    0.0000 H   0  0  0  0  0  0  0  0  0  0  0  0
    1.5617   16.8092    0.0000 H   0  0  0  0  0  0  0  0  0  0  0  0
    2.4323   13.9617    0.0000 H   0  0  0  0  0  0  0  0  0  0  0  0
   -0.6970   14.5618    0.0000 H   0  0  0  0  0  0  0  0  0  0  0  0
    0.2989   16.4348    0.0000 H   0  0  0  0  0  0  0  0  0  0  0  0
    1.1760   13.5659    0.0000 H   0  0  0  0  0  0  0  0  0  0  0  0
  1  2  2  3
  2  3  1  0
  3  4  1  0
  4  5  2  0
  5  6  1  0
  6  7  1  0
  7  8  1  0
  8  9  1  0
  9 10  1  0
  9 11  1  0
 11 12  1  0
  3 13  1  0
 13 14  1  0
 14 15  1  0
 15 16  1  0
 16 17  1  0
 17 18  1  0
 18 19  1  0
 18 20  1  0
 20 21  1  0
 21 22  1  0
 22 23  1  0
 22 24  1  0
 20 25  1  0
 25 26  1  0
 26 27  1  0
 26 28  1  0
 28 29  1  0
 29 30  1  0
 29 31  1  0
 31 32  1  0
 32 33  1  0
 33 34  1  0
 34 35  1  0
 35 36  1  0
 35 37  1  0
 37 38  1  0
 14  2  1  0
 25 17  1  0
  8  4  1  0
 16 14  1  0
 11  6  1  0
  1 39  1  0
  1 40  1  0
  3 41  1  0
  5 42  1  0
  6 43  1  0
  7 44  1  0
  7 45  1  0
  8 46  1  0
  9 47  1  0
 10 48  1  0
 10 49  1  0
 10 50  1  0
 11 51  1  0
 12 52  1  0
 12 53  1  0
 12 54  1  0
 13 55  1  0
 13 56  1  0
 15 57  1  0
 15 58  1  0
 16 59  1  0
 17 60  1  0
 18 61  1  0
 20 62  1  0
 21 63  1  0
 21 64  1  0
 22 65  1  0
 23 66  1  0
 23 67  1  0
 23 68  1  0
 24 69  1  0
 24 70  1  0
 24 71  1  0
 25 72  1  0
 26 73  1  0
 27 74  1  0
 28 75  1  0
 28 76  1  0
 29 77  1  0
 30 78  1  0
 31 79  1  0
 31 80  1  0
 32 81  1  0
 32 82  1  0
 33 83  1  0
 33 84  1  0
 34 85  1  0
 34 86  1  0
 35 87  1  0
 36 88  1  0
 36 89  1  0
 36 90  1  0
 37 91  1  0
 37 92  1  0
 38 93  1  0
 38 94  1  0
 38 95  1  0
M  END
$$$$
