
     RDKit          2D

 59 64  0  0  0  0  0  0  0  0999 V2000
   -6.5490   -9.8059    0.0000 C   0  0  0  0  0  0  0  0  0  0  0  0
   -5.0490   -9.8059    0.0000 B   0  0  0  0  0  0  0  0  0  0  0  0
   -4.2990  -11.1049    0.0000 O   0  0  0  0  0  0  0  0  0  0  0  0
   -4.2990   -8.5068    0.0000 C   0  0  0  0  0  0  0  0  0  0  0  0
   -3.5490   -7.2078    0.0000 C   0  0  0  0  0  0  0  0  0  0  0  0
   -2.7990   -5.9087    0.0000 C   0  0  0  0  0  0  0  0  0  0  0  0
   -2.0490   -4.6097    0.0000 C   0  0  0  0  0  0  0  0  0  0  0  0
   -1.2990   -3.3107    0.0000 C   0  0  0  0  0  0  0  0  0  0  0  0
   -1.2990   -1.8107    0.0000 C   0  0  0  0  0  0  0  0  0  0  0  0
   -1.4263   -2.9552    0.0000 C   0  0  0  0  0  0  0  0  0  0  0  0
   -3.1486   -1.5319    0.0000 C   0  0  0  0  0  0  0  0  0  0  0  0
   -3.8986   -0.2328    0.0000 C   0  0  0  0  0  0  0  0  0  0  0  0
   -5.1977   -0.9828    0.0000 C   0  0  0  0  0  0  0  0  0  0  0  0
   -5.9477    0.3162    0.0000 C   0  0  0  0  0  0  0  0  0  0  0  0
   -4.6486    1.0662    0.0000 C   0  0  0  0  0  0  0  0  0  0  0  0
   -0.3399   -3.6124    0.0000 C   0  0  0  0  0  0  0  0  0  0  0  0
   -0.4194   -4.7367    0.0000 C   0  0  0  0  0  0  0  0  0  0  0  0
    0.7500   -5.3597    0.0000 C   0  0  0  0  0  0  0  0  0  0  0  0
   -0.7500   -5.3597    0.0000 C   0  0  0  0  0  0  0  0  0  0  0  0
   -0.0000   -4.0607    0.0000 C   0  0  0  0  0  0  0  0  0  0  0  0
    1.2990   -3.3107    0.0000 O   0  0  0  0  0  0  0  0  0  0  0  0
    1.2990   -1.8107    0.0000 O   0  0  0  0  0  0  0  0  0  0  0  0
   -0.0000   -1.0607    0.0000 C   0  0  0  0  0  0  0  0  0  0  0  0
    1.0607    0.0000    0.0000 C   0  0  0  0  0  0  0  0  0  0  0  0
    0.0000    1.0607    0.0000 C   0  0  0  0  0  0  0  0  0  0  0  0
   -1.0607    0.0000    0.0000 O   0  0  0  0  0  0  0  0  0  0  0  0
   -8.0490   -9.8059    0.0000 H   0  0  0  0  0  0  0  0  0  0  0  0
   -6.5490  -11.3059    0.0000 H   0  0  0  0  0  0  0  0  0  0  0  0
   -6.5490   -8.3059    0.0000 H   0  0  0  0  0  0  0  0  0  0  0  0
   -5.0490  -12.4039    0.0000 H   0  0  0  0  0  0  0  0  0  0  0  0
   -5.5981   -7.7568    0.0000 H   0  0  0  0  0  0  0  0  0  0  0  0
   -3.0000   -9.2568    0.0000 H   0  0  0  0  0  0  0  0  0  0  0  0
   -2.2500   -7.9578    0.0000 H   0  0  0  0  0  0  0  0  0  0  0  0
   -4.8481   -6.4578    0.0000 H   0  0  0  0  0  0  0  0  0  0  0  0
   -1.7201   -6.9508    0.0000 H   0  0  0  0  0  0  0  0  0  0  0  0
   -4.0981   -5.1587    0.0000 H   0  0  0  0  0  0  0  0  0  0  0  0
   -3.4910   -4.1963    0.0000 H   0  0  0  0  0  0  0  0  0  0  0  0
   -2.7988   -3.2846    0.0000 H   0  0  0  0  0  0  0  0  0  0  0  0
   -2.2429   -0.6449    0.0000 H   0  0  0  0  0  0  0  0  0  0  0  0
   -3.8964   -2.9131    0.0000 H   0  0  0  0  0  0  0  0  0  0  0  0
   -4.3465   -2.4346    0.0000 H   0  0  0  0  0  0  0  0  0  0  0  0
   -1.9507   -0.6291    0.0000 H   0  0  0  0  0  0  0  0  0  0  0  0
   -2.5996    0.5172    0.0000 H   0  0  0  0  0  0  0  0  0  0  0  0
   -6.4967   -1.7328    0.0000 H   0  0  0  0  0  0  0  0  0  0  0  0
   -4.6116   -2.3636    0.0000 H   0  0  0  0  0  0  0  0  0  0  0  0
   -6.6977    1.6152    0.0000 H   0  0  0  0  0  0  0  0  0  0  0  0
   -7.2467   -0.4338    0.0000 H   0  0  0  0  0  0  0  0  0  0  0  0
   -3.3496    1.8162    0.0000 H   0  0  0  0  0  0  0  0  0  0  0  0
   -5.3986    2.3652    0.0000 H   0  0  0  0  0  0  0  0  0  0  0  0
   -3.7698   -4.1032    0.0000 H   0  0  0  0  0  0  0  0  0  0  0  0
   -3.2986   -5.4338    0.0000 H   0  0  0  0  0  0  0  0  0  0  0  0
   -1.5389   -6.5888    0.0000 H   0  0  0  0  0  0  0  0  0  0  0  0
   -0.4611   -6.5525    0.0000 H   0  0  0  0  0  0  0  0  0  0  0  0
    2.0490   -6.1097    0.0000 H   0  0  0  0  0  0  0  0  0  0  0  0
   -0.7761   -6.8595    0.0000 H   0  0  0  0  0  0  0  0  0  0  0  0
    2.1213    1.0607    0.0000 H   0  0  0  0  0  0  0  0  0  0  0  0
    2.1213   -1.0607    0.0000 H   0  0  0  0  0  0  0  0  0  0  0  0
   -1.0607    2.1213    0.0000 H   0  0  0  0  0  0  0  0  0  0  0  0
    1.0607    2.1213    0.0000 H   0  0  0  0  0  0  0  0  0  0  0  0
  1  2  1  0
  2  3  1  0
  2  4  1  0
  4  5  1  0
  5  6  1  0
  6  7  1  0
  7  8  1  0
  8  9  1  0
  9 10  1  0
 10 11  1  0
 11 12  1  0
 12 13  1  0
 13 14  1  0
 14 15  1  0
 10 16  1  0
 16 17  1  0
 17 18  1  0
 18 19  1  0
 19 20  1  0
 20 21  1  0
 21 22  1  0
 22 23  1  0
 23 24  1  0
 24 25  1  0
 25 26  1  0
 19  7  1  0
 26 23  1  0
 20  8  1  0
 23  9  1  0
 15 12  1  0
 20 18  1  0
  1 27  1  0
  1 28  1  0
  1 29  1  0
  3 30  1  0
  4 31  1  0
  4 32  1  0
  5 33  1  0
  5 34  1  0
  6 35  1  0
  6 36  1  0
  7 37  1  0
  8 38  1  0
  9 39  1  0
 10 40  1  0
 11 41  1  0
 11 42  1  0
 12 43  1  0
 13 44  1  0
 13 45  1  0
 14 46  1  0
 14 47  1  0
 15 48  1  0
 15 49  1  0
 16 50  1  0
 16 51  1  0
 17 52  1  0
 17 53  1  0
 18 54  1  0
 19 55  1  0
 24 56  1  0
 24 57  1  0
 25 58  1  0
 25 59  1  0
M  END
$$$$
