
     RDKit          2D

 74 90  0  0  0  0  0  0  0  0999 V2000
  -10.4028   -7.1327    0.0000 C   0  0  0  0  0  0  0  0  0  0  0  0
   -8.9564   -3.8456    0.0000 C   0  0  0  0  0  0  0  0  0  0  0  0
   -8.0105   -3.4251    0.0000 C   0  0  0  0  0  0  0  0  0  0  0  0
   -6.5115   -3.4812    0.0000 C   0  0  0  0  0  0  0  0  0  0  0  0
   -6.6348   -4.9761    0.0000 O   0  0  0  0  0  0  0  0  0  0  0  0
   -8.7100   -6.0359    0.0000 C   0  0  0  0  0  0  0  0  0  0  0  0
  -10.1259   -5.5405    0.0000 C   0  0  0  0  0  0  0  0  0  0  0  0
   -8.9889   -4.5620    0.0000 C   0  0  0  0  0  0  0  0  0  0  0  0
   -7.3839   -6.7368    0.0000 C   0  0  0  0  0  0  0  0  0  0  0  0
   -6.1770   -7.6275    0.0000 C   0  0  0  0  0  0  0  0  0  0  0  0
   -6.0090   -6.1370    0.0000 C   0  0  0  0  0  0  0  0  0  0  0  0
   -5.6208   -4.6881    0.0000 C   0  0  0  0  0  0  0  0  0  0  0  0
   -4.3921   -3.8277    0.0000 N   0  0  0  0  0  0  0  0  0  0  0  0
   -5.9824   -4.0516    0.0000 O   0  0  0  0  0  0  0  0  0  0  0  0
   -7.4579   -3.9122    0.0000 C   0  0  0  0  0  0  0  0  0  0  0  0
   -8.1495   -2.5811    0.0000 C   0  0  0  0  0  0  0  0  0  0  0  0
   -8.0829   -1.0826    0.0000 C   0  0  0  0  0  0  0  0  0  0  0  0
   -7.2760    0.1819    0.0000 C   0  0  0  0  0  0  0  0  0  0  0  0
   -8.5405    0.9888    0.0000 N   0  0  0  0  0  0  0  0  0  0  0  0
   -9.3474   -0.2757    0.0000 S   0  0  0  0  0  4  0  0  0  0  0  0
   -5.9450    0.8735    0.0000 C   0  0  0  0  0  0  0  0  0  0  0  0
   -5.3699    2.2589    0.0000 Br  0  0  0  0  0  0  0  0  0  0  0  0
   -4.4465    0.8069    0.0000 N   0  0  0  0  0  0  0  0  0  0  0  0
   -3.1820    0.0000    0.0000 C   0  0  0  0  0  0  0  0  0  0  0  0
   -3.5702   -1.4489    0.0000 N   0  0  0  0  0  0  0  0  0  0  0  0
   -3.9584   -2.8978    0.0000 N   0  0  0  0  0  0  0  0  0  0  0  0
   -2.8978   -3.9584    0.0000 C   0  0  0  0  0  0  0  0  0  0  0  0
   -1.4489   -3.5702    0.0000 N   0  0  0  0  0  0  0  0  0  0  0  0
   -1.0607   -2.1213    0.0000 C   0  0  0  0  0  0  0  0  0  0  0  0
   -0.0000   -1.0607    0.0000 N   0  0  0  0  0  0  0  0  0  0  0  0
    1.0607    0.0000    0.0000 O   0  0  0  0  0  0  0  0  0  0  0  0
    0.0000    1.0607    0.0000 C   0  0  0  0  0  0  0  0  0  0  0  0
   -1.0607    0.0000    0.0000 C   0  0  0  0  0  0  0  0  0  0  0  0
   -2.1213   -1.0607    0.0000 C   0  0  0  0  0  0  0  0  0  0  0  0
   -1.8371   -5.0191    0.0000 C   0  0  0  0  0  0  0  0  0  0  0  0
   -0.4454   -5.6208    0.0000 N   0  0  0  0  0  2  0  0  0  0  0  0
   -0.0572   -7.0697    0.0000 C   0  0  0  0  0  0  0  0  0  0  0  0
   -1.1179   -8.1303    0.0000 N   0  0  0  0  0  2  0  0  0  0  0  0
   -2.5667   -7.7421    0.0000 C   0  0  0  0  0  0  0  0  0  0  0  0
   -4.0156   -8.1303    0.0000 C   0  0  0  0  0  0  0  0  0  0  0  0
   -5.3751   -7.4964    0.0000 C   0  0  0  0  0  0  0  0  0  0  0  0
   -6.4358   -8.5571    0.0000 O   0  0  0  0  0  0  0  0  0  0  0  0
   -1.7064   -6.5134    0.0000 N   0  0  0  0  0  0  0  0  0  0  0  0
  -11.0069   -8.5057    0.0000 H   0  0  0  0  0  0  0  0  0  0  0  0
  -11.7758   -6.5286    0.0000 H   0  0  0  0  0  0  0  0  0  0  0  0
   -9.0298   -7.7368    0.0000 H   0  0  0  0  0  0  0  0  0  0  0  0
   -8.9252   -2.2362    0.0000 H   0  0  0  0  0  0  0  0  0  0  0  0
   -5.8106   -2.1550    0.0000 H   0  0  0  0  0  0  0  0  0  0  0  0
  -11.1544   -6.6323    0.0000 H   0  0  0  0  0  0  0  0  0  0  0  0
  -11.2869   -4.5907    0.0000 H   0  0  0  0  0  0  0  0  0  0  0  0
  -10.1710   -3.6386    0.0000 H   0  0  0  0  0  0  0  0  0  0  0  0
   -7.1498   -8.7693    0.0000 H   0  0  0  0  0  0  0  0  0  0  0  0
   -4.8836   -8.3873    0.0000 H   0  0  0  0  0  0  0  0  0  0  0  0
   -5.5610   -3.1893    0.0000 H   0  0  0  0  0  0  0  0  0  0  0  0
   -9.5349   -2.0060    0.0000 H   0  0  0  0  0  0  0  0  0  0  0  0
   -9.4925   -3.2493    0.0000 H   0  0  0  0  0  0  0  0  0  0  0  0
   -8.7278    0.2717    0.0000 H   0  0  0  0  0  0  0  0  0  0  0  0
   -7.3926    1.6773    0.0000 H   0  0  0  0  0  0  0  0  0  0  0  0
   -8.8640    2.4535    0.0000 H   0  0  0  0  0  0  0  0  0  0  0  0
   -6.9182    2.0149    0.0000 H   0  0  0  0  0  0  0  0  0  0  0  0
   -4.1720    2.2816    0.0000 H   0  0  0  0  0  0  0  0  0  0  0  0
   -3.3907    1.4854    0.0000 H   0  0  0  0  0  0  0  0  0  0  0  0
   -5.4438   -3.1065    0.0000 H   0  0  0  0  0  0  0  0  0  0  0  0
    0.2384   -2.8713    0.0000 H   0  0  0  0  0  0  0  0  0  0  0  0
   -1.0607    2.1213    0.0000 H   0  0  0  0  0  0  0  0  0  0  0  0
    1.0607    2.1213    0.0000 H   0  0  0  0  0  0  0  0  0  0  0  0
   -2.1213    1.0607    0.0000 H   0  0  0  0  0  0  0  0  0  0  0  0
    0.8032   -8.2984    0.0000 H   0  0  0  0  0  0  0  0  0  0  0  0
    1.3023   -6.4358    0.0000 H   0  0  0  0  0  0  0  0  0  0  0  0
   -1.7064   -8.9708    0.0000 H   0  0  0  0  0  0  0  0  0  0  0  0
   -3.2282   -9.4070    0.0000 H   0  0  0  0  0  0  0  0  0  0  0  0
   -5.0128   -9.2509    0.0000 H   0  0  0  0  0  0  0  0  0  0  0  0
   -7.8846   -8.1689    0.0000 H   0  0  0  0  0  0  0  0  0  0  0  0
   -0.3945   -7.2407    0.0000 H   0  0  0  0  0  0  0  0  0  0  0  0
  1  2  1  0
  2  3  1  0
  3  4  1  0
  4  5  1  0
  5  6  1  0
  6  7  1  0
  7  8  1  0
  6  9  1  0
  9 10  1  0
 10 11  1  0
 11 12  1  0
 12 13  1  0
 13 14  1  0
 14 15  1  0
 15 16  1  0
 16 17  1  0
 17 18  1  0
 18 19  1  0
 19 20  1  0
 18 21  1  0
 21 22  1  0
 21 23  1  0
 23 24  1  0
 24 25  1  0
 25 26  1  0
 26 27  1  0
 27 28  1  0
 28 29  1  0
 29 30  1  0
 30 31  1  0
 31 32  1  0
 32 33  1  0
 33 34  1  0
 28 35  1  0
 35 36  1  0
 36 37  1  0
 37 38  1  0
 38 39  1  0
 39 40  1  0
 40 41  1  0
 41 42  1  0
 39 43  1  0
 15  2  1  0
 20 17  1  0
 34 24  1  0
 43 35  1  0
 20  2  1  0
 34 25  1  0
  8  3  1  0
 11  9  1  0
 27 13  1  0
 34 29  1  0
 12  4  1  0
 20 15  1  0
 35 27  1  0
  8  6  1  0
 41  9  1  0
 41 11  1  0
 33 30  1  0
  1 44  1  0
  1 45  1  0
  1 46  1  0
  3 47  1  0
  4 48  1  0
  7 49  1  0
  7 50  1  0
  8 51  1  0
 10 52  1  0
 10 53  1  0
 12 54  1  0
 16 55  1  0
 16 56  1  0
 17 57  1  0
 18 58  1  0
 19 59  1  0
 21 60  1  0
 23 61  1  0
 24 62  1  0
 26 63  1  0
 29 64  1  0
 32 65  1  0
 32 66  1  0
 33 67  1  0
 37 68  1  0
 37 69  1  0
 39 70  1  0
 40 71  1  0
 40 72  1  0
 42 73  1  0
 43 74  1  0
M  RAD  2  36   2  38   2
M  END
$$$$
