
     RDKit          2D

 61 61  0  0  0  0  0  0  0  0999 V2000
    6.6511    6.8944    0.0000 C   0  0  0  0  0  0  0  0  0  0  0  0
    5.6869    5.7453    0.0000 C   0  0  0  0  0  0  0  0  0  0  0  0
    4.7228    4.5963    0.0000 C   0  0  0  0  0  0  0  0  0  0  0  0
    3.7586    3.4472    0.0000 C   0  0  0  0  0  0  0  0  0  0  0  0
    2.7944    2.2981    0.0000 C   0  0  0  0  0  0  0  0  0  0  0  0
    1.8302    1.1491    0.0000 C   0  0  0  0  0  0  0  0  0  0  0  0
    0.8660    0.0000    0.0000 C   0  0  0  0  0  0  0  0  0  0  0  0
   -0.4330    0.7500    0.0000 C   0  0  0  0  0  0  0  0  0  0  0  0
   -0.4330   -0.7500    0.0000 C   0  0  0  0  0  0  0  0  0  0  0  0
    0.0800   -2.1595    0.0000 C   0  0  0  0  0  0  0  0  0  0  0  0
    0.5930   -3.5691    0.0000 C   0  0  0  0  0  0  0  0  0  0  0  0
    1.1061   -4.9786    0.0000 N   0  0  0  0  0  0  0  0  0  0  0  0
    2.5833   -5.2391    0.0000 C   0  0  0  0  0  0  0  0  0  0  0  0
    4.0605   -5.4996    0.0000 C   0  0  0  0  0  0  0  0  0  0  0  0
    0.1419   -6.1277    0.0000 C   0  0  0  0  0  0  0  0  0  0  0  0
   -1.0072   -5.1635    0.0000 C   0  0  0  0  0  0  0  0  0  0  0  0
   -2.4167   -5.6765    0.0000 S   0  0  0  0  0  0  0  0  0  0  0  0
    1.2910   -7.0919    0.0000 C   0  0  0  0  0  0  0  0  0  0  0  0
    2.4400   -8.0560    0.0000 N   0  0  0  0  0  0  0  0  0  0  0  0
    2.1796   -9.5333    0.0000 C   0  0  0  0  0  0  0  0  0  0  0  0
    0.7023   -9.2728    0.0000 C   0  0  0  0  0  0  0  0  0  0  0  0
    3.6568   -9.7937    0.0000 C   0  0  0  0  0  0  0  0  0  0  0  0
    5.1340  -10.0542    0.0000 O   0  0  0  0  0  0  0  0  0  0  0  0
    7.6153    8.0435    0.0000 H   0  0  0  0  0  0  0  0  0  0  0  0
    5.5020    7.8586    0.0000 H   0  0  0  0  0  0  0  0  0  0  0  0
    7.8002    5.9302    0.0000 H   0  0  0  0  0  0  0  0  0  0  0  0
    4.5379    6.7095    0.0000 H   0  0  0  0  0  0  0  0  0  0  0  0
    6.8360    4.7812    0.0000 H   0  0  0  0  0  0  0  0  0  0  0  0
    5.8718    3.6321    0.0000 H   0  0  0  0  0  0  0  0  0  0  0  0
    3.5737    5.5604    0.0000 H   0  0  0  0  0  0  0  0  0  0  0  0
    2.6095    4.4114    0.0000 H   0  0  0  0  0  0  0  0  0  0  0  0
    4.9076    2.4830    0.0000 H   0  0  0  0  0  0  0  0  0  0  0  0
    3.9435    1.3340    0.0000 H   0  0  0  0  0  0  0  0  0  0  0  0
    1.6453    3.2623    0.0000 H   0  0  0  0  0  0  0  0  0  0  0  0
    2.9793    0.1849    0.0000 H   0  0  0  0  0  0  0  0  0  0  0  0
    0.9095    2.1364    0.0000 H   0  0  0  0  0  0  0  0  0  0  0  0
    1.8534   -0.9207    0.0000 H   0  0  0  0  0  0  0  0  0  0  0  0
   -1.9102    1.0105    0.0000 H   0  0  0  0  0  0  0  0  0  0  0  0
   -0.1294    2.0654    0.0000 H   0  0  0  0  0  0  0  0  0  0  0  0
   -1.9102   -1.0105    0.0000 H   0  0  0  0  0  0  0  0  0  0  0  0
   -1.3295   -2.6726    0.0000 H   0  0  0  0  0  0  0  0  0  0  0  0
    1.3954   -1.8559    0.0000 H   0  0  0  0  0  0  0  0  0  0  0  0
   -0.1837   -3.7484    0.0000 H   0  0  0  0  0  0  0  0  0  0  0  0
    2.0026   -3.0560    0.0000 H   0  0  0  0  0  0  0  0  0  0  0  0
    2.8438   -3.7619    0.0000 H   0  0  0  0  0  0  0  0  0  0  0  0
    2.5048   -6.7370    0.0000 H   0  0  0  0  0  0  0  0  0  0  0  0
    5.5377   -5.7600    0.0000 H   0  0  0  0  0  0  0  0  0  0  0  0
    4.3210   -4.0223    0.0000 H   0  0  0  0  0  0  0  0  0  0  0  0
    3.9820   -6.9975    0.0000 H   0  0  0  0  0  0  0  0  0  0  0  0
   -0.8223   -7.2768    0.0000 H   0  0  0  0  0  0  0  0  0  0  0  0
   -0.9655   -4.3674    0.0000 H   0  0  0  0  0  0  0  0  0  0  0  0
    0.1939   -8.1148    0.0000 H   0  0  0  0  0  0  0  0  0  0  0  0
    2.6030   -6.3648    0.0000 H   0  0  0  0  0  0  0  0  0  0  0  0
    3.8496   -7.5430    0.0000 H   0  0  0  0  0  0  0  0  0  0  0  0
    1.9191  -11.0105    0.0000 H   0  0  0  0  0  0  0  0  0  0  0  0
   -0.7749   -9.0123    0.0000 H   0  0  0  0  0  0  0  0  0  0  0  0
    0.4419  -10.7500    0.0000 H   0  0  0  0  0  0  0  0  0  0  0  0
    0.4160   -7.8004    0.0000 H   0  0  0  0  0  0  0  0  0  0  0  0
    3.3963  -11.2709    0.0000 H   0  0  0  0  0  0  0  0  0  0  0  0
    4.0954   -8.3593    0.0000 H   0  0  0  0  0  0  0  0  0  0  0  0
    5.6470  -11.4637    0.0000 H   0  0  0  0  0  0  0  0  0  0  0  0
  1  2  1  0
  2  3  1  0
  3  4  1  0
  4  5  1  0
  5  6  1  0
  6  7  1  0
  7  8  1  0
  8  9  1  0
  9 10  1  0
 10 11  1  0
 11 12  1  0
 12 13  1  0
 13 14  1  0
 12 15  1  0
 15 16  1  0
 16 17  2  0
 15 18  1  0
 18 19  1  0
 19 20  1  0
 20 21  1  0
 20 22  1  0
 22 23  1  0
  9  7  1  0
  1 24  1  0
  1 25  1  0
  1 26  1  0
  2 27  1  0
  2 28  1  0
  3 29  1  0
  3 30  1  0
  4 31  1  0
  4 32  1  0
  5 33  1  0
  5 34  1  0
  6 35  1  0
  6 36  1  0
  7 37  1  0
  8 38  1  0
  8 39  1  0
  9 40  1  0
 10 41  1  0
 10 42  1  0
 11 43  1  0
 11 44  1  0
 13 45  1  0
 13 46  1  0
 14 47  1  0
 14 48  1  0
 14 49  1  0
 15 50  1  0
 16 51  1  0
 18 52  1  0
 18 53  1  0
 19 54  1  0
 20 55  1  0
 21 56  1  0
 21 57  1  0
 21 58  1  0
 22 59  1  0
 22 60  1  0
 23 61  1  0
M  END
$$$$
