
     RDKit          2D

 37 39  0  0  0  0  0  0  0  0999 V2000
   -4.2926    0.2439    0.0000 C   0  0  0  0  0  0  0  0  0  0  0  0
   -4.8231   -1.1592    0.0000 C   0  0  0  0  0  0  0  0  0  0  0  0
   -5.8016   -2.2961    0.0000 C   0  0  0  0  0  0  0  0  0  0  0  0
   -5.3061   -3.7119    0.0000 C   0  0  0  0  0  0  0  0  0  0  0  0
   -3.8323   -3.9908    0.0000 O   0  0  0  0  0  0  0  0  0  0  0  0
   -2.8539   -2.8539    0.0000 C   0  0  0  0  0  0  0  0  0  0  0  0
   -1.4380   -3.3493    0.0000 C   0  0  0  0  0  0  0  0  0  0  0  0
   -2.2361   -4.6194    0.0000 O   0  0  0  0  0  0  0  0  0  0  0  0
   -0.1679   -2.5512    0.0000 C   0  0  0  0  0  0  0  0  0  0  0  0
   -0.0000   -1.0607    0.0000 C   0  0  0  0  0  0  0  0  0  0  0  0
    1.0607    0.0000    0.0000 C   0  0  0  0  0  0  0  0  0  0  0  0
    0.0000    1.0607    0.0000 C   0  0  0  0  0  0  0  0  0  0  0  0
   -1.0607    0.0000    0.0000 C   0  0  0  0  0  0  0  0  0  0  0  0
   -2.5512   -0.1679    0.0000 C   0  0  0  0  0  0  0  0  0  0  0  0
   -3.3493   -1.4380    0.0000 C   0  0  0  0  0  0  0  0  0  0  0  0
   -3.7620    1.6469    0.0000 H   0  0  0  0  0  0  0  0  0  0  0  0
   -5.6956    0.7744    0.0000 H   0  0  0  0  0  0  0  0  0  0  0  0
   -3.5009    0.1507    0.0000 H   0  0  0  0  0  0  0  0  0  0  0  0
   -6.1127   -0.3930    0.0000 H   0  0  0  0  0  0  0  0  0  0  0  0
   -6.7513   -1.1351    0.0000 H   0  0  0  0  0  0  0  0  0  0  0  0
   -7.1098   -3.0299    0.0000 H   0  0  0  0  0  0  0  0  0  0  0  0
   -6.7865   -3.9540    0.0000 H   0  0  0  0  0  0  0  0  0  0  0  0
   -5.3248   -5.2118    0.0000 H   0  0  0  0  0  0  0  0  0  0  0  0
   -2.8367   -3.8379    0.0000 H   0  0  0  0  0  0  0  0  0  0  0  0
   -0.5146   -4.5313    0.0000 H   0  0  0  0  0  0  0  0  0  0  0  0
   -1.5352   -5.9455    0.0000 H   0  0  0  0  0  0  0  0  0  0  0  0
    0.4964   -3.8961    0.0000 H   0  0  0  0  0  0  0  0  0  0  0  0
    1.3320   -2.5662    0.0000 H   0  0  0  0  0  0  0  0  0  0  0  0
    1.2786   -1.4938    0.0000 H   0  0  0  0  0  0  0  0  0  0  0  0
    2.1213    1.0607    0.0000 H   0  0  0  0  0  0  0  0  0  0  0  0
    2.0153   -0.9546    0.0000 H   0  0  0  0  0  0  0  0  0  0  0  0
   -0.9546    2.0153    0.0000 H   0  0  0  0  0  0  0  0  0  0  0  0
    1.0607    2.1213    0.0000 H   0  0  0  0  0  0  0  0  0  0  0  0
   -1.4938    1.2786    0.0000 H   0  0  0  0  0  0  0  0  0  0  0  0
   -2.5662    1.3320    0.0000 H   0  0  0  0  0  0  0  0  0  0  0  0
   -3.2916    0.3182    0.0000 H   0  0  0  0  0  0  0  0  0  0  0  0
   -1.8503   -1.3819    0.0000 H   0  0  0  0  0  0  0  0  0  0  0  0
  1  2  1  0
  2  3  1  0
  3  4  1  0
  4  5  1  0
  5  6  1  0
  6  7  1  0
  7  8  1  0
  7  9  1  0
  9 10  1  0
 10 11  1  0
 11 12  1  0
 12 13  1  0
 13 14  1  0
 14 15  1  0
 15  2  1  0
 15  6  1  0
 13 10  1  0
  1 16  1  0
  1 17  1  0
  1 18  1  0
  2 19  1  1
  3 20  1  0
  3 21  1  0
  4 22  1  0
  4 23  1  0
  6 24  1  1
  7 25  1  1
  8 26  1  0
  9 27  1  0
  9 28  1  0
 10 29  1  6
 11 30  1  0
 11 31  1  0
 12 32  1  0
 12 33  1  0
 13 34  1  6
 14 35  1  0
 14 36  1  0
 15 37  1  1
M  END
$$$$
