
     RDKit          2D

102112  0  0  0  0  0  0  0  0999 V2000
    8.6513    0.4982    0.0000 C   0  0  0  0  0  0  0  0  0  0  0  0
    7.2501    1.0336    0.0000 C   0  0  0  0  0  0  0  0  0  0  0  0
    5.8490    1.5690    0.0000 C   0  0  0  0  0  0  0  0  0  0  0  0
    4.4478    2.1044    0.0000 C   0  0  0  0  0  0  0  0  0  0  0  0
    3.3142    3.0868    0.0000 C   0  0  0  0  0  0  0  0  0  0  0  0
    1.8810    2.6099    0.0000 C   0  0  0  0  0  0  0  0  0  0  0  0
    3.2299    2.5139    0.0000 C   0  0  0  0  0  0  0  0  0  0  0  0
    4.5822    2.5162    0.0000 C   0  0  0  0  0  0  0  0  0  0  0  0
    5.8425    1.7027    0.0000 C   0  0  0  0  0  0  0  0  0  0  0  0
    5.4582    0.2528    0.0000 C   0  0  0  0  0  0  0  0  0  0  0  0
    3.8899   -0.0965    0.0000 N   0  0  0  0  0  0  0  0  0  0  0  0
    4.8652    1.0431    0.0000 C   0  0  0  0  0  0  0  0  0  0  0  0
    3.0231   -0.8965    0.0000 C   0  0  0  0  0  0  0  0  0  0  0  0
    4.5214   -0.8252    0.0000 N   0  0  0  0  0  0  0  0  0  0  0  0
    4.1638    0.6315    0.0000 C   0  0  0  0  0  0  0  0  0  0  0  0
    2.7071    0.2739    0.0000 C   0  0  0  0  0  0  0  0  0  0  0  0
    3.0647   -1.1829    0.0000 C   0  0  0  0  0  0  0  0  0  0  0  0
    2.4023   -2.5287    0.0000 C   0  0  0  0  0  0  0  0  0  0  0  0
    1.0298   -3.1339    0.0000 C   0  0  0  0  0  0  0  0  0  0  0  0
   -0.3882   -2.5095    0.0000 C   0  0  0  0  0  0  0  0  0  0  0  0
   -1.8371   -2.8978    0.0000 C   0  0  0  0  0  0  0  0  0  0  0  0
   -3.0658   -3.7581    0.0000 F   0  0  0  0  0  0  0  0  0  0  0  0
   -2.8978   -1.8371    0.0000 C   0  0  0  0  0  0  0  0  0  0  0  0
   -2.5095   -0.3882    0.0000 C   0  0  0  0  0  0  0  0  0  0  0  0
   -2.6403    1.1061    0.0000 C   0  0  0  0  0  0  0  0  0  0  0  0
   -2.7710    2.6004    0.0000 C   0  0  0  0  0  0  0  0  0  0  0  0
   -1.0607    0.0000    0.0000 C   0  0  0  0  0  0  0  0  0  0  0  0
   -0.0000   -1.0607    0.0000 C   0  0  0  0  0  0  0  0  0  0  0  0
    1.0607    0.0000    0.0000 O   0  0  0  0  0  0  0  0  0  0  0  0
    0.0000    1.0607    0.0000 C   0  0  0  0  0  0  0  0  0  0  0  0
    1.4967    1.1599    0.0000 C   0  0  0  0  0  0  0  0  0  0  0  0
    3.8427   -2.9473    0.0000 C   0  0  0  0  0  0  0  0  0  0  0  0
    2.7600   -3.9854    0.0000 C   0  0  0  0  0  0  0  0  0  0  0  0
    3.5943   -5.2320    0.0000 C   0  0  0  0  0  0  0  0  0  0  0  0
    4.4286   -6.4785    0.0000 C   0  0  0  0  0  0  0  0  0  0  0  0
    2.3477   -6.0663    0.0000 C   0  0  0  0  0  0  0  0  0  0  0  0
    1.1011   -6.9006    0.0000 C   0  0  0  0  0  0  0  0  0  0  0  0
   -0.1454   -7.7349    0.0000 C   0  0  0  0  0  0  0  0  0  0  0  0
   -1.3920   -8.5692    0.0000 C   0  0  0  0  0  0  0  0  0  0  0  0
   -1.2927  -10.0659    0.0000 C   0  0  0  0  0  0  0  0  0  0  0  0
   -2.6386   -9.4035    0.0000 C   0  0  0  0  0  0  0  0  0  0  0  0
   -2.7378   -7.9068    0.0000 C   0  0  0  0  0  0  0  0  0  0  0  0
   -4.2290   -7.7447    0.0000 C   0  0  0  0  0  0  0  0  0  0  0  0
   10.0525   -0.0373    0.0000 H   0  0  0  0  0  0  0  0  0  0  0  0
    9.1867    1.8993    0.0000 H   0  0  0  0  0  0  0  0  0  0  0  0
    8.1159   -0.9030    0.0000 H   0  0  0  0  0  0  0  0  0  0  0  0
    6.8895   -0.4224    0.0000 H   0  0  0  0  0  0  0  0  0  0  0  0
    7.7856    2.4348    0.0000 H   0  0  0  0  0  0  0  0  0  0  0  0
    5.8514    0.0690    0.0000 H   0  0  0  0  0  0  0  0  0  0  0  0
    6.7075    2.7990    0.0000 H   0  0  0  0  0  0  0  0  0  0  0  0
    5.3695    3.2878    0.0000 H   0  0  0  0  0  0  0  0  0  0  0  0
    4.5851    3.8835    0.0000 H   0  0  0  0  0  0  0  0  0  0  0  0
    2.4306    4.2989    0.0000 H   0  0  0  0  0  0  0  0  0  0  0  0
    0.7413    3.5852    0.0000 H   0  0  0  0  0  0  0  0  0  0  0  0
    2.5136    4.5179    0.0000 H   0  0  0  0  0  0  0  0  0  0  0  0
    4.0833    4.4635    0.0000 H   0  0  0  0  0  0  0  0  0  0  0  0
    5.3862    3.7826    0.0000 H   0  0  0  0  0  0  0  0  0  0  0  0
    6.5198    3.0411    0.0000 H   0  0  0  0  0  0  0  0  0  0  0  0
    7.3318    1.5241    0.0000 H   0  0  0  0  0  0  0  0  0  0  0  0
    6.9013   -0.1568    0.0000 H   0  0  0  0  0  0  0  0  0  0  0  0
    5.3839   -1.2454    0.0000 H   0  0  0  0  0  0  0  0  0  0  0  0
    6.3610    0.9313    0.0000 H   0  0  0  0  0  0  0  0  0  0  0  0
    5.8993   -0.0433    0.0000 H   0  0  0  0  0  0  0  0  0  0  0  0
    2.9592    0.6022    0.0000 H   0  0  0  0  0  0  0  0  0  0  0  0
    4.9410    1.9145    0.0000 H   0  0  0  0  0  0  0  0  0  0  0  0
    2.9986    1.7453    0.0000 H   0  0  0  0  0  0  0  0  0  0  0  0
    4.3611   -1.9374    0.0000 H   0  0  0  0  0  0  0  0  0  0  0  0
    1.6981   -4.4767    0.0000 H   0  0  0  0  0  0  0  0  0  0  0  0
    0.2156   -4.3937    0.0000 H   0  0  0  0  0  0  0  0  0  0  0  0
    0.8976   -3.2820    0.0000 H   0  0  0  0  0  0  0  0  0  0  0  0
   -1.2032   -4.2572    0.0000 H   0  0  0  0  0  0  0  0  0  0  0  0
   -4.2572   -1.2032    0.0000 H   0  0  0  0  0  0  0  0  0  0  0  0
   -3.7581   -3.0658    0.0000 H   0  0  0  0  0  0  0  0  0  0  0  0
   -4.0038   -0.2575    0.0000 H   0  0  0  0  0  0  0  0  0  0  0  0
   -4.1346    0.9753    0.0000 H   0  0  0  0  0  0  0  0  0  0  0  0
   -1.1731    1.4180    0.0000 H   0  0  0  0  0  0  0  0  0  0  0  0
   -2.9017    4.0946    0.0000 H   0  0  0  0  0  0  0  0  0  0  0  0
   -4.2653    2.4696    0.0000 H   0  0  0  0  0  0  0  0  0  0  0  0
   -1.2767    2.7311    0.0000 H   0  0  0  0  0  0  0  0  0  0  0  0
   -1.6467    1.3808    0.0000 H   0  0  0  0  0  0  0  0  0  0  0  0
    1.2990   -1.8107    0.0000 H   0  0  0  0  0  0  0  0  0  0  0  0
    0.0000    2.5607    0.0000 H   0  0  0  0  0  0  0  0  0  0  0  0
    4.9435   -1.9284    0.0000 H   0  0  0  0  0  0  0  0  0  0  0  0
    5.1520   -3.6792    0.0000 H   0  0  0  0  0  0  0  0  0  0  0  0
    1.3875   -4.5906    0.0000 H   0  0  0  0  0  0  0  0  0  0  0  0
    4.9332   -4.5558    0.0000 H   0  0  0  0  0  0  0  0  0  0  0  0
    5.2629   -7.7251    0.0000 H   0  0  0  0  0  0  0  0  0  0  0  0
    3.2930   -7.4586    0.0000 H   0  0  0  0  0  0  0  0  0  0  0  0
    5.6751   -5.6442    0.0000 H   0  0  0  0  0  0  0  0  0  0  0  0
    3.0238   -7.4053    0.0000 H   0  0  0  0  0  0  0  0  0  0  0  0
    1.2365   -5.0587    0.0000 H   0  0  0  0  0  0  0  0  0  0  0  0
    1.9354   -8.1472    0.0000 H   0  0  0  0  0  0  0  0  0  0  0  0
    0.2668   -5.6540    0.0000 H   0  0  0  0  0  0  0  0  0  0  0  0
    0.6889   -8.9815    0.0000 H   0  0  0  0  0  0  0  0  0  0  0  0
   -0.9797   -6.4884    0.0000 H   0  0  0  0  0  0  0  0  0  0  0  0
    0.1985  -10.2281    0.0000 H   0  0  0  0  0  0  0  0  0  0  0  0
   -1.7114  -11.5063    0.0000 H   0  0  0  0  0  0  0  0  0  0  0  0
   -3.8851  -10.2379    0.0000 H   0  0  0  0  0  0  0  0  0  0  0  0
   -2.3192   -6.4664    0.0000 H   0  0  0  0  0  0  0  0  0  0  0  0
   -5.7202   -7.5825    0.0000 H   0  0  0  0  0  0  0  0  0  0  0  0
   -4.0669   -6.2535    0.0000 H   0  0  0  0  0  0  0  0  0  0  0  0
   -4.3912   -9.2359    0.0000 H   0  0  0  0  0  0  0  0  0  0  0  0
  1  2  1  0
  2  3  1  0
  3  4  1  0
  4  5  1  0
  5  6  1  0
  6  7  1  0
  7  8  1  0
  8  9  1  0
  9 10  1  0
 10 11  1  0
 11 12  1  0
 11 13  1  0
 13 14  1  0
 14 15  1  0
 15 16  1  0
 16 17  1  0
 17 18  1  0
 18 19  1  0
 19 20  1  0
 20 21  1  0
 21 22  1  0
 21 23  1  0
 23 24  1  0
 24 25  1  0
 25 26  1  0
 24 27  1  0
 27 28  1  0
 28 29  1  0
 29 30  1  0
 30 31  1  0
 18 32  1  0
 32 33  1  0
 33 34  1  0
 34 35  1  0
 34 36  1  0
 36 37  1  0
 37 38  1  0
 38 39  1  0
 39 40  1  0
 40 41  1  0
 41 42  1  0
 42 43  1  0
 15  4  1  0
 31 16  1  0
 41 39  1  0
 31  6  1  0
 42 39  1  0
 12  8  1  0
 31 13  1  0
 17 14  1  0
 33 18  1  0
 28 20  1  0
 30 27  1  0
  1 44  1  0
  1 45  1  0
  1 46  1  0
  2 47  1  0
  2 48  1  0
  3 49  1  0
  3 50  1  0
  4 51  1  0
  5 52  1  0
  5 53  1  0
  6 54  1  0
  7 55  1  0
  7 56  1  0
  8 57  1  0
  9 58  1  0
  9 59  1  0
 10 60  1  0
 10 61  1  0
 12 62  1  0
 12 63  1  0
 13 64  1  0
 15 65  1  0
 16 66  1  0
 17 67  1  0
 19 68  1  0
 19 69  1  0
 20 70  1  0
 21 71  1  0
 23 72  1  0
 23 73  1  0
 24 74  1  0
 25 75  1  0
 25 76  1  0
 26 77  1  0
 26 78  1  0
 26 79  1  0
 27 80  1  0
 28 81  1  0
 30 82  1  0
 32 83  1  0
 32 84  1  0
 33 85  1  0
 34 86  1  0
 35 87  1  0
 35 88  1  0
 35 89  1  0
 36 90  1  0
 36 91  1  0
 37 92  1  0
 37 93  1  0
 38 94  1  0
 38 95  1  0
 40 96  1  0
 40 97  1  0
 41 98  1  0
 42 99  1  0
 43100  1  0
 43101  1  0
 43102  1  0
M  END
$$$$
