
     RDKit          2D

104110  0  0  0  0  0  0  0  0999 V2000
    1.9058    4.7395    0.0000 C   0  0  0  0  0  0  0  0  0  0  0  0
    1.6453    3.2623    0.0000 C   0  0  0  0  0  0  0  0  0  0  0  0
    2.7944    2.2981    0.0000 C   0  0  0  0  0  0  0  0  0  0  0  0
    3.9435    1.3340    0.0000 C   0  0  0  0  0  0  0  0  0  0  0  0
    5.0925    0.3698    0.0000 C   0  0  0  0  0  0  0  0  0  0  0  0
    6.2416   -0.5944    0.0000 O   0  0  0  0  0  0  0  0  0  0  0  0
    6.0567    1.5188    0.0000 O   0  0  0  0  0  0  0  0  0  0  0  0
    1.8302    1.1491    0.0000 C   0  0  0  0  0  0  0  0  0  0  0  0
    0.8660    0.0000    0.0000 C   0  0  0  0  0  0  0  0  0  0  0  0
   -0.4330    0.7500    0.0000 C   0  0  0  0  0  0  0  0  0  0  0  0
   -1.3147    1.9635    0.0000 C   0  0  0  0  0  0  0  0  0  0  0  0
   -2.7413    2.4271    0.0000 C   0  0  0  0  0  0  0  0  0  0  0  0
   -4.1679    1.9635    0.0000 C   0  0  0  0  0  0  0  0  0  0  0  0
   -5.0495    0.7500    0.0000 C   0  0  0  0  0  0  0  0  0  0  0  0
   -5.0495   -0.7500    0.0000 C   0  0  0  0  0  0  0  0  0  0  0  0
   -5.5131   -2.1766    0.0000 C   0  0  0  0  0  0  0  0  0  0  0  0
   -4.2995   -3.0583    0.0000 C   0  0  0  0  0  0  0  0  0  0  0  0
   -5.3032   -4.1730    0.0000 C   0  0  0  0  0  0  0  0  0  0  0  0
   -6.3069   -5.2877    0.0000 C   0  0  0  0  0  0  0  0  0  0  0  0
   -7.3106   -6.4024    0.0000 C   0  0  0  0  0  0  0  0  0  0  0  0
   -8.3143   -7.5171    0.0000 C   0  0  0  0  0  0  0  0  0  0  0  0
   -9.3180   -8.6318    0.0000 C   0  0  0  0  0  0  0  0  0  0  0  0
   -9.4290   -6.5134    0.0000 C   0  0  0  0  0  0  0  0  0  0  0  0
  -10.5438   -5.5097    0.0000 C   0  0  0  0  0  0  0  0  0  0  0  0
  -11.6585   -4.5060    0.0000 C   0  0  0  0  0  0  0  0  0  0  0  0
  -12.6622   -5.6208    0.0000 C   0  0  0  0  0  0  0  0  0  0  0  0
  -10.6548   -3.3913    0.0000 C   0  0  0  0  0  0  0  0  0  0  0  0
  -11.7695   -2.3876    0.0000 C   0  0  0  0  0  0  0  0  0  0  0  0
  -12.7732   -3.5023    0.0000 C   0  0  0  0  0  0  0  0  0  0  0  0
  -10.4327   -7.6282    0.0000 C   0  0  0  0  0  0  0  0  0  0  0  0
  -11.5475   -6.6245    0.0000 C   0  0  0  0  0  0  0  0  0  0  0  0
  -12.5511   -7.7392    0.0000 C   0  0  0  0  0  0  0  0  0  0  0  0
  -13.5548   -8.8539    0.0000 C   0  0  0  0  0  0  0  0  0  0  0  0
  -11.4364   -8.7429    0.0000 S   0  0  0  0  0  0  0  0  0  0  0  0
   -2.7413   -2.4271    0.0000 C   0  0  0  0  0  0  0  0  0  0  0  0
   -2.5584   -3.9159    0.0000 F   0  0  0  0  0  0  0  0  0  0  0  0
   -4.1679   -1.9635    0.0000 C   0  0  0  0  0  0  0  0  0  0  0  0
   -1.3147   -1.9635    0.0000 O   0  0  0  0  0  0  0  0  0  0  0  0
   -0.4330   -0.7500    0.0000 C   0  0  0  0  0  0  0  0  0  0  0  0
   -3.8560    3.4307    0.0000 C   0  0  0  0  0  0  0  0  0  0  0  0
   -4.9707    4.4344    0.0000 C   0  0  0  0  0  0  0  0  0  0  0  0
   -3.5441    4.8980    0.0000 C   0  0  0  0  0  0  0  0  0  0  0  0
   -3.7529    6.3834    0.0000 C   0  0  0  0  0  0  0  0  0  0  0  0
    0.7567    5.7037    0.0000 H   0  0  0  0  0  0  0  0  0  0  0  0
    3.3153    5.2526    0.0000 H   0  0  0  0  0  0  0  0  0  0  0  0
    0.7205    2.9257    0.0000 H   0  0  0  0  0  0  0  0  0  0  0  0
    3.7586    3.4472    0.0000 H   0  0  0  0  0  0  0  0  0  0  0  0
    4.9076    2.4830    0.0000 H   0  0  0  0  0  0  0  0  0  0  0  0
    3.4611    0.5911    0.0000 H   0  0  0  0  0  0  0  0  0  0  0  0
    4.1283   -0.7793    0.0000 H   0  0  0  0  0  0  0  0  0  0  0  0
    5.9811   -2.0716    0.0000 H   0  0  0  0  0  0  0  0  0  0  0  0
    7.5339    1.2584    0.0000 H   0  0  0  0  0  0  0  0  0  0  0  0
    1.2262    1.7969    0.0000 H   0  0  0  0  0  0  0  0  0  0  0  0
    2.4343    0.5013    0.0000 H   0  0  0  0  0  0  0  0  0  0  0  0
    1.8302   -1.1491    0.0000 H   0  0  0  0  0  0  0  0  0  0  0  0
    0.2987    1.5626    0.0000 H   0  0  0  0  0  0  0  0  0  0  0  0
   -1.1318    3.4523    0.0000 H   0  0  0  0  0  0  0  0  0  0  0  0
   -0.2135    2.4770    0.0000 H   0  0  0  0  0  0  0  0  0  0  0  0
   -2.1552    3.8078    0.0000 H   0  0  0  0  0  0  0  0  0  0  0  0
   -5.4536    2.7361    0.0000 H   0  0  0  0  0  0  0  0  0  0  0  0
   -6.4761    0.2865    0.0000 H   0  0  0  0  0  0  0  0  0  0  0  0
   -6.0726    1.8470    0.0000 H   0  0  0  0  0  0  0  0  0  0  0  0
   -6.2422   -0.9818    0.0000 H   0  0  0  0  0  0  0  0  0  0  0  0
   -6.6750   -1.8214    0.0000 H   0  0  0  0  0  0  0  0  0  0  0  0
   -6.3255   -3.2547    0.0000 H   0  0  0  0  0  0  0  0  0  0  0  0
   -3.4392   -4.2870    0.0000 H   0  0  0  0  0  0  0  0  0  0  0  0
   -4.1885   -5.1767    0.0000 H   0  0  0  0  0  0  0  0  0  0  0  0
   -6.4091   -3.3987    0.0000 H   0  0  0  0  0  0  0  0  0  0  0  0
   -7.4216   -4.2840    0.0000 H   0  0  0  0  0  0  0  0  0  0  0  0
   -5.1922   -6.2914    0.0000 H   0  0  0  0  0  0  0  0  0  0  0  0
   -6.1959   -7.4061    0.0000 H   0  0  0  0  0  0  0  0  0  0  0  0
   -8.2947   -5.2703    0.0000 H   0  0  0  0  0  0  0  0  0  0  0  0
   -7.1996   -8.5208    0.0000 H   0  0  0  0  0  0  0  0  0  0  0  0
  -10.3217   -9.7466    0.0000 H   0  0  0  0  0  0  0  0  0  0  0  0
   -8.2033   -9.6355    0.0000 H   0  0  0  0  0  0  0  0  0  0  0  0
  -10.6425   -7.9277    0.0000 H   0  0  0  0  0  0  0  0  0  0  0  0
   -8.5687   -5.2847    0.0000 H   0  0  0  0  0  0  0  0  0  0  0  0
   -9.4117   -4.5257    0.0000 H   0  0  0  0  0  0  0  0  0  0  0  0
  -11.6758   -6.4938    0.0000 H   0  0  0  0  0  0  0  0  0  0  0  0
  -13.7943   -6.6048    0.0000 H   0  0  0  0  0  0  0  0  0  0  0  0
  -13.8909   -4.7604    0.0000 H   0  0  0  0  0  0  0  0  0  0  0  0
  -11.9813   -6.9573    0.0000 H   0  0  0  0  0  0  0  0  0  0  0  0
   -9.6511   -2.2766    0.0000 H   0  0  0  0  0  0  0  0  0  0  0  0
   -9.4260   -4.2517    0.0000 H   0  0  0  0  0  0  0  0  0  0  0  0
  -12.8842   -1.3839    0.0000 H   0  0  0  0  0  0  0  0  0  0  0  0
  -10.7658   -1.2729    0.0000 H   0  0  0  0  0  0  0  0  0  0  0  0
  -13.9053   -4.4864    0.0000 H   0  0  0  0  0  0  0  0  0  0  0  0
  -13.8879   -2.4987    0.0000 H   0  0  0  0  0  0  0  0  0  0  0  0
   -9.5940   -8.8718    0.0000 H   0  0  0  0  0  0  0  0  0  0  0  0
  -12.8719   -5.9203    0.0000 H   0  0  0  0  0  0  0  0  0  0  0  0
  -10.8433   -5.3000    0.0000 H   0  0  0  0  0  0  0  0  0  0  0  0
  -13.7799   -6.8788    0.0000 H   0  0  0  0  0  0  0  0  0  0  0  0
  -14.5585   -9.9686    0.0000 H   0  0  0  0  0  0  0  0  0  0  0  0
  -14.6696   -7.8502    0.0000 H   0  0  0  0  0  0  0  0  0  0  0  0
  -12.4401   -9.8576    0.0000 H   0  0  0  0  0  0  0  0  0  0  0  0
   -4.5308   -3.4189    0.0000 H   0  0  0  0  0  0  0  0  0  0  0  0
   -5.4399   -2.7585    0.0000 H   0  0  0  0  0  0  0  0  0  0  0  0
    0.5707   -1.8647    0.0000 H   0  0  0  0  0  0  0  0  0  0  0  0
   -6.1527    3.5110    0.0000 H   0  0  0  0  0  0  0  0  0  0  0  0
   -5.8311    5.6631    0.0000 H   0  0  0  0  0  0  0  0  0  0  0  0
   -2.0450    4.8456    0.0000 H   0  0  0  0  0  0  0  0  0  0  0  0
   -3.9616    7.8688    0.0000 H   0  0  0  0  0  0  0  0  0  0  0  0
   -2.2675    6.5921    0.0000 H   0  0  0  0  0  0  0  0  0  0  0  0
   -5.2527    6.3572    0.0000 H   0  0  0  0  0  0  0  0  0  0  0  0
  1  2  2  3
  2  3  1  0
  3  4  1  0
  4  5  1  0
  5  6  1  0
  5  7  1  0
  3  8  1  0
  8  9  1  0
  9 10  1  0
 10 11  1  0
 11 12  1  0
 12 13  1  0
 13 14  1  0
 14 15  1  0
 15 16  1  0
 16 17  1  0
 17 18  1  0
 18 19  1  0
 19 20  1  0
 20 21  1  0
 21 22  1  0
 21 23  1  0
 23 24  1  0
 24 25  1  0
 25 26  1  0
 25 27  1  0
 27 28  1  0
 28 29  1  0
 23 30  1  0
 30 31  1  0
 31 32  1  0
 32 33  1  0
 32 34  1  0
 17 35  1  0
 35 36  1  6
 35 37  1  0
 35 38  1  0
 38 39  1  0
 13 40  1  0
 40 41  1  6
 41 42  1  0
 42 43  1  0
 39  9  1  0
 42 40  1  0
 39 10  1  0
 40 12  1  0
 37 15  1  0
 29 25  1  0
 34 30  1  0
  1 44  1  0
  1 45  1  0
  2 46  1  0
  3 47  1  6
  4 48  1  0
  4 49  1  0
  5 50  1  0
  6 51  1  0
  7 52  1  0
  8 53  1  0
  8 54  1  0
  9 55  1  0
 10 56  1  6
 11 57  1  0
 11 58  1  0
 12 59  1  1
 13 60  1  1
 14 61  1  0
 14 62  1  0
 15 63  1  1
 16 64  1  0
 16 65  1  0
 17 66  1  6
 18 67  1  0
 18 68  1  0
 19 69  1  0
 19 70  1  0
 20 71  1  0
 20 72  1  0
 21 73  1  6
 22 74  1  0
 22 75  1  0
 22 76  1  0
 23 77  1  1
 24 78  1  0
 24 79  1  0
 26 80  1  0
 26 81  1  0
 26 82  1  0
 27 83  1  0
 27 84  1  0
 28 85  1  0
 28 86  1  0
 29 87  1  0
 29 88  1  0
 30 89  1  6
 31 90  1  0
 31 91  1  0
 32 92  1  6
 33 93  1  0
 33 94  1  0
 33 95  1  0
 37 96  1  0
 37 97  1  0
 39 98  1  6
 41 99  1  0
 41100  1  0
 42101  1  6
 43102  1  0
 43103  1  0
 43104  1  0
M  END
$$$$
