
     RDKit          2D

 40 41  0  0  0  0  0  0  0  0999 V2000
    2.7938   -5.6915    0.0000 C   0  0  0  0  0  0  0  0  0  0  0  0
    3.1820   -4.2426    0.0000 C   0  0  0  0  0  0  0  0  0  0  0  0
    2.1213   -3.1820    0.0000 C   0  0  0  0  0  0  0  0  0  0  0  0
    1.0607   -2.1213    0.0000 C   0  0  0  0  0  0  0  0  0  0  0  0
   -0.0000   -1.0607    0.0000 C   0  0  0  0  0  0  0  0  0  0  0  0
    1.0607    0.0000    0.0000 O   0  0  0  0  0  0  0  0  0  0  0  0
    0.0000    1.0607    0.0000 C   0  0  0  0  0  0  0  0  0  0  0  0
   -1.0607    2.1213    0.0000 O   0  0  0  0  0  0  0  0  0  0  0  0
   -1.0607    0.0000    0.0000 C   0  0  0  0  0  0  0  0  0  0  0  0
   -2.1213   -1.0607    0.0000 C   0  0  0  0  0  0  0  0  0  0  0  0
   -3.1820   -2.1213    0.0000 C   0  0  0  0  0  0  0  0  0  0  0  0
   -4.2426   -3.1820    0.0000 C   0  0  0  0  0  0  0  0  0  0  0  0
    4.6309   -3.8544    0.0000 C   0  0  0  0  0  0  0  0  0  0  0  0
    5.0191   -5.3033    0.0000 C   0  0  0  0  0  0  0  0  0  0  0  0
    6.4680   -4.9151    0.0000 C   0  0  0  0  0  0  0  0  0  0  0  0
    6.0798   -3.4662    0.0000 C   0  0  0  0  0  0  0  0  0  0  0  0
    3.4201   -6.3178    0.0000 H   0  0  0  0  0  0  0  0  0  0  0  0
    1.3449   -6.0798    0.0000 H   0  0  0  0  0  0  0  0  0  0  0  0
    1.0607   -4.2426    0.0000 H   0  0  0  0  0  0  0  0  0  0  0  0
    3.1820   -2.1213    0.0000 H   0  0  0  0  0  0  0  0  0  0  0  0
    2.1213   -1.0607    0.0000 H   0  0  0  0  0  0  0  0  0  0  0  0
    0.0000   -3.1820    0.0000 H   0  0  0  0  0  0  0  0  0  0  0  0
   -0.5453   -1.7586    0.0000 H   0  0  0  0  0  0  0  0  0  0  0  0
    1.0607    2.1213    0.0000 H   0  0  0  0  0  0  0  0  0  0  0  0
   -0.6724    3.5702    0.0000 H   0  0  0  0  0  0  0  0  0  0  0  0
   -2.1213    1.0607    0.0000 H   0  0  0  0  0  0  0  0  0  0  0  0
   -1.5760   -1.7586    0.0000 H   0  0  0  0  0  0  0  0  0  0  0  0
   -3.1820    0.0000    0.0000 H   0  0  0  0  0  0  0  0  0  0  0  0
   -2.1213   -3.1820    0.0000 H   0  0  0  0  0  0  0  0  0  0  0  0
   -4.2426   -1.0607    0.0000 H   0  0  0  0  0  0  0  0  0  0  0  0
   -5.3033   -4.2426    0.0000 H   0  0  0  0  0  0  0  0  0  0  0  0
   -5.3033   -2.1213    0.0000 H   0  0  0  0  0  0  0  0  0  0  0  0
   -3.1820   -4.2426    0.0000 H   0  0  0  0  0  0  0  0  0  0  0  0
    4.2426   -2.4055    0.0000 H   0  0  0  0  0  0  0  0  0  0  0  0
    5.4073   -6.7522    0.0000 H   0  0  0  0  0  0  0  0  0  0  0  0
    4.2444   -5.7328    0.0000 H   0  0  0  0  0  0  0  0  0  0  0  0
    7.9169   -4.5268    0.0000 H   0  0  0  0  0  0  0  0  0  0  0  0
    6.8562   -6.3640    0.0000 H   0  0  0  0  0  0  0  0  0  0  0  0
    5.6915   -2.0173    0.0000 H   0  0  0  0  0  0  0  0  0  0  0  0
    7.5286   -3.0780    0.0000 H   0  0  0  0  0  0  0  0  0  0  0  0
  1  2  2  3
  2  3  1  0
  3  4  1  0
  4  5  1  0
  5  6  1  0
  6  7  1  0
  7  8  1  0
  7  9  1  0
  9 10  1  0
 10 11  1  0
 11 12  1  0
  2 13  1  0
 13 14  1  0
 14 15  1  0
 15 16  1  0
  9  5  1  0
 16 13  1  0
  1 17  1  0
  1 18  1  0
  3 19  1  0
  3 20  1  0
  4 21  1  0
  4 22  1  0
  5 23  1  0
  7 24  1  0
  8 25  1  0
  9 26  1  0
 10 27  1  0
 10 28  1  0
 11 29  1  0
 11 30  1  0
 12 31  1  0
 12 32  1  0
 12 33  1  0
 13 34  1  0
 14 35  1  0
 14 36  1  0
 15 37  1  0
 15 38  1  0
 16 39  1  0
 16 40  1  0
M  END
$$$$
