
     RDKit          2D

 24 27  0  0  0  0  0  0  0  0999 V2000
   -3.1135   -1.4184    0.0000 C   0  0  0  0  0  0  0  0  0  0  0  0
   -2.8530    0.0588    0.0000 C   0  0  0  0  0  0  0  0  0  0  0  0
   -2.5926    1.5360    0.0000 C   0  0  0  0  0  0  0  0  0  0  0  0
   -3.7416    2.5002    0.0000 O   0  0  0  0  0  0  0  0  0  0  0  0
   -2.3321    3.0132    0.0000 C   0  0  0  0  0  0  0  0  0  0  0  0
   -1.1830    2.0490    0.0000 C   0  0  0  0  0  0  0  0  0  0  0  0
   -0.4330    0.7500    0.0000 B   0  0  0  0  0  0  0  0  0  0  0  0
    0.8660   -0.0000    0.0000 C   0  0  0  0  0  0  0  0  0  0  0  0
    1.6160   -1.2990    0.0000 C   0  0  0  0  0  0  0  0  0  0  0  0
    0.3170   -2.0490    0.0000 C   0  0  0  0  0  0  0  0  0  0  0  0
   -0.4330   -0.7500    0.0000 C   0  0  0  0  0  0  0  0  0  0  0  0
   -3.3740   -2.8956    0.0000 H   0  0  0  0  0  0  0  0  0  0  0  0
   -2.1724   -1.7062    0.0000 H   0  0  0  0  0  0  0  0  0  0  0  0
   -4.5907   -1.1579    0.0000 H   0  0  0  0  0  0  0  0  0  0  0  0
   -1.3758   -0.2017    0.0000 H   0  0  0  0  0  0  0  0  0  0  0  0
   -4.3302    0.3193    0.0000 H   0  0  0  0  0  0  0  0  0  0  0  0
   -2.0716    4.4904    0.0000 H   0  0  0  0  0  0  0  0  0  0  0  0
   -0.0339    3.0132    0.0000 H   0  0  0  0  0  0  0  0  0  0  0  0
    1.9267    1.0607    0.0000 H   0  0  0  0  0  0  0  0  0  0  0  0
    2.3660   -2.5981    0.0000 H   0  0  0  0  0  0  0  0  0  0  0  0
    2.9151   -0.5490    0.0000 H   0  0  0  0  0  0  0  0  0  0  0  0
   -0.9821   -2.7990    0.0000 H   0  0  0  0  0  0  0  0  0  0  0  0
    1.0670   -3.3481    0.0000 H   0  0  0  0  0  0  0  0  0  0  0  0
   -1.3455   -1.1187    0.0000 H   0  0  0  0  0  0  0  0  0  0  0  0
  1  2  1  0
  2  3  1  0
  3  4  1  0
  4  5  1  0
  5  6  1  0
  6  7  1  0
  7  8  1  0
  8  9  1  0
  9 10  1  0
 10 11  1  0
  5  3  1  0
 11  7  1  0
  6  3  1  0
 11  8  1  0
  1 12  1  0
  1 13  1  0
  1 14  1  0
  2 15  1  0
  2 16  1  0
  5 17  1  0
  6 18  1  0
  8 19  1  0
  9 20  1  0
  9 21  1  0
 10 22  1  0
 10 23  1  0
 11 24  1  0
M  END
$$$$
