
     RDKit          2D

 48 49  0  0  0  0  0  0  0  0999 V2000
   -2.0938   -7.8585    0.0000 C   0  0  0  0  0  0  0  0  0  0  0  0
   -1.9196   -6.3686    0.0000 C   0  0  0  0  0  0  0  0  0  0  0  0
   -1.7455   -4.8788    0.0000 C   0  0  0  0  0  0  0  0  0  0  0  0
   -1.5713   -3.3889    0.0000 C   0  0  0  0  0  0  0  0  0  0  0  0
   -0.0815   -3.5631    0.0000 O   0  0  0  0  0  0  0  0  0  0  0  0
   -1.3972   -1.8991    0.0000 C   0  0  0  0  0  0  0  0  0  0  0  0
   -2.8744   -2.1595    0.0000 C   0  0  0  0  0  0  0  0  0  0  0  0
   -3.9655   -3.1889    0.0000 O   0  0  0  0  0  0  0  0  0  0  0  0
   -4.1734   -1.4095    0.0000 C   0  0  0  0  0  0  0  0  0  0  0  0
   -4.6865    0.0000    0.0000 C   0  0  0  0  0  0  0  0  0  0  0  0
   -5.8897    0.8957    0.0000 C   0  0  0  0  0  0  0  0  0  0  0  0
   -4.1734    1.4095    0.0000 O   0  0  0  0  0  0  0  0  0  0  0  0
   -2.8744    2.1595    0.0000 C   0  0  0  0  0  0  0  0  0  0  0  0
   -2.2012    3.5000    0.0000 C   0  0  0  0  0  0  0  0  0  0  0  0
   -1.5280    4.8404    0.0000 O   0  0  0  0  0  0  0  0  0  0  0  0
   -3.5417    4.1732    0.0000 O   0  0  0  0  0  0  0  0  0  0  0  0
   -1.3972    1.8991    0.0000 C   0  0  0  0  0  0  0  0  0  0  0  0
   -0.4330    0.7500    0.0000 C   0  0  0  0  0  0  0  0  0  0  0  0
    0.8660    0.0000    0.0000 C   0  0  0  0  0  0  0  0  0  0  0  0
   -0.4330   -0.7500    0.0000 C   0  0  0  0  0  0  0  0  0  0  0  0
   -2.2679   -9.3484    0.0000 H   0  0  0  0  0  0  0  0  0  0  0  0
   -3.5836   -7.6844    0.0000 H   0  0  0  0  0  0  0  0  0  0  0  0
   -0.6039   -8.0326    0.0000 H   0  0  0  0  0  0  0  0  0  0  0  0
   -3.4095   -6.1945    0.0000 H   0  0  0  0  0  0  0  0  0  0  0  0
   -0.4298   -6.5428    0.0000 H   0  0  0  0  0  0  0  0  0  0  0  0
   -0.2880   -5.2332    0.0000 H   0  0  0  0  0  0  0  0  0  0  0  0
   -3.2454   -4.8875    0.0000 H   0  0  0  0  0  0  0  0  0  0  0  0
   -2.3437   -3.5863    0.0000 H   0  0  0  0  0  0  0  0  0  0  0  0
    0.6761   -4.8577    0.0000 H   0  0  0  0  0  0  0  0  0  0  0  0
   -0.2320   -2.5809    0.0000 H   0  0  0  0  0  0  0  0  0  0  0  0
   -2.7958   -2.9528    0.0000 H   0  0  0  0  0  0  0  0  0  0  0  0
   -3.8000   -4.6798    0.0000 H   0  0  0  0  0  0  0  0  0  0  0  0
   -5.6491   -1.6786    0.0000 H   0  0  0  0  0  0  0  0  0  0  0  0
   -4.8623   -2.7420    0.0000 H   0  0  0  0  0  0  0  0  0  0  0  0
   -5.9899   -0.7424    0.0000 H   0  0  0  0  0  0  0  0  0  0  0  0
   -7.0928    1.7915    0.0000 H   0  0  0  0  0  0  0  0  0  0  0  0
   -6.7854   -0.3074    0.0000 H   0  0  0  0  0  0  0  0  0  0  0  0
   -4.9939    2.0989    0.0000 H   0  0  0  0  0  0  0  0  0  0  0  0
   -3.9655    3.1889    0.0000 H   0  0  0  0  0  0  0  0  0  0  0  0
   -0.7377    3.1711    0.0000 H   0  0  0  0  0  0  0  0  0  0  0  0
   -2.3523    6.0937    0.0000 H   0  0  0  0  0  0  0  0  0  0  0  0
   -3.6289    5.6706    0.0000 H   0  0  0  0  0  0  0  0  0  0  0  0
   -0.0199    2.4932    0.0000 H   0  0  0  0  0  0  0  0  0  0  0  0
   -1.0257    3.3523    0.0000 H   0  0  0  0  0  0  0  0  0  0  0  0
    0.6640    1.7730    0.0000 H   0  0  0  0  0  0  0  0  0  0  0  0
    1.8302    1.1491    0.0000 H   0  0  0  0  0  0  0  0  0  0  0  0
    1.8302   -1.1491    0.0000 H   0  0  0  0  0  0  0  0  0  0  0  0
    0.6640   -1.7730    0.0000 H   0  0  0  0  0  0  0  0  0  0  0  0
  1  2  1  0
  2  3  1  0
  3  4  1  0
  4  5  1  0
  4  6  1  0
  6  7  1  0
  7  8  1  0
  7  9  1  0
  9 10  1  0
 10 11  1  0
 10 12  1  0
 12 13  1  0
 13 14  1  0
 14 15  1  0
 14 16  1  0
 13 17  1  0
 17 18  1  0
 18 19  1  0
 19 20  1  0
 20  6  1  0
 20 18  1  0
  1 21  1  0
  1 22  1  0
  1 23  1  0
  2 24  1  0
  2 25  1  0
  3 26  1  0
  3 27  1  0
  4 28  1  0
  5 29  1  0
  6 30  1  0
  7 31  1  0
  8 32  1  0
  9 33  1  0
  9 34  1  0
 10 35  1  0
 11 36  1  0
 11 37  1  0
 11 38  1  0
 13 39  1  0
 14 40  1  0
 15 41  1  0
 16 42  1  0
 17 43  1  0
 17 44  1  0
 18 45  1  0
 19 46  1  0
 19 47  1  0
 20 48  1  0
M  END
$$$$
