
     RDKit          2D

 49 53  0  0  0  0  0  0  0  0999 V2000
    6.5191   -3.3371    0.0000 C   0  0  0  0  0  0  0  0  0  0  0  0
    5.4584   -4.3978    0.0000 C   0  0  0  0  0  0  0  0  0  0  0  0
    5.8467   -5.8467    0.0000 C   0  0  0  0  0  0  0  0  0  0  0  0
    4.0095   -4.0095    0.0000 C   0  0  0  0  0  0  0  0  0  0  0  0
    2.5607   -3.6213    0.0000 C   0  0  0  0  0  0  0  0  0  0  0  0
    1.8107   -4.9204    0.0000 C   0  0  0  0  0  0  0  0  0  0  0  0
    1.0607   -3.6213    0.0000 C   0  0  0  0  0  0  0  0  0  0  0  0
    1.0607   -2.1213    0.0000 N   0  0  0  0  0  0  0  0  0  0  0  0
   -0.0000   -1.0607    0.0000 C   0  0  0  0  0  0  0  0  0  0  0  0
    1.0607    0.0000    0.0000 N   0  0  0  0  0  2  0  0  0  0  0  0
    0.0000    1.0607    0.0000 C   0  0  0  0  0  0  0  0  0  0  0  0
   -1.2135    1.9423    0.0000 C   0  0  0  0  0  0  0  0  0  0  0  0
   -0.7500    3.3689    0.0000 C   0  0  0  0  0  0  0  0  0  0  0  0
    0.7500    3.3689    0.0000 C   0  0  0  0  0  0  0  0  0  0  0  0
    0.5932    4.8607    0.0000 C   0  0  0  0  0  0  0  0  0  0  0  0
    2.0850    5.0175    0.0000 C   0  0  0  0  0  0  0  0  0  0  0  0
    1.9282    6.5093    0.0000 C   0  0  0  0  0  0  0  0  0  0  0  0
    1.7714    8.0011    0.0000 O   0  0  0  0  0  0  0  0  0  0  0  0
    0.4364    6.3525    0.0000 C   0  0  0  0  0  0  0  0  0  0  0  0
   -1.0554    6.1957    0.0000 O   0  0  0  0  0  0  0  0  0  0  0  0
    1.2135    1.9423    0.0000 N   0  0  0  0  0  0  0  0  0  0  0  0
   -1.0607    0.0000    0.0000 N   0  0  0  0  0  2  0  0  0  0  0  0
    2.5607   -2.1213    0.0000 C   0  0  0  0  0  0  0  0  0  0  0  0
    7.9680   -3.7253    0.0000 H   0  0  0  0  0  0  0  0  0  0  0  0
    6.1309   -1.8882    0.0000 H   0  0  0  0  0  0  0  0  0  0  0  0
    6.2349   -7.2956    0.0000 H   0  0  0  0  0  0  0  0  0  0  0  0
    7.2956   -5.4584    0.0000 H   0  0  0  0  0  0  0  0  0  0  0  0
    4.3978   -6.2349    0.0000 H   0  0  0  0  0  0  0  0  0  0  0  0
    4.5715   -2.6188    0.0000 H   0  0  0  0  0  0  0  0  0  0  0  0
    3.8008   -5.4950    0.0000 H   0  0  0  0  0  0  0  0  0  0  0  0
    2.8336   -6.0174    0.0000 H   0  0  0  0  0  0  0  0  0  0  0  0
    0.6616   -5.8845    0.0000 H   0  0  0  0  0  0  0  0  0  0  0  0
   -0.3882   -4.0095    0.0000 H   0  0  0  0  0  0  0  0  0  0  0  0
   -1.0607   -2.1213    0.0000 H   0  0  0  0  0  0  0  0  0  0  0  0
   -1.9635    0.6433    0.0000 H   0  0  0  0  0  0  0  0  0  0  0  0
   -2.5838    2.5524    0.0000 H   0  0  0  0  0  0  0  0  0  0  0  0
   -2.2172    3.6808    0.0000 H   0  0  0  0  0  0  0  0  0  0  0  0
   -0.7639    4.1660    0.0000 H   0  0  0  0  0  0  0  0  0  0  0  0
    2.2443    3.4996    0.0000 H   0  0  0  0  0  0  0  0  0  0  0  0
   -0.2038    4.8746    0.0000 H   0  0  0  0  0  0  0  0  0  0  0  0
    3.5768    5.1743    0.0000 H   0  0  0  0  0  0  0  0  0  0  0  0
    2.4225    3.5560    0.0000 H   0  0  0  0  0  0  0  0  0  0  0  0
    3.4200    6.6661    0.0000 H   0  0  0  0  0  0  0  0  0  0  0  0
    2.9849    8.8827    0.0000 H   0  0  0  0  0  0  0  0  0  0  0  0
    0.2796    7.8443    0.0000 H   0  0  0  0  0  0  0  0  0  0  0  0
   -1.9370    7.4092    0.0000 H   0  0  0  0  0  0  0  0  0  0  0  0
    2.6401    1.4788    0.0000 H   0  0  0  0  0  0  0  0  0  0  0  0
    4.0495   -1.9385    0.0000 H   0  0  0  0  0  0  0  0  0  0  0  0
    2.5607   -0.6213    0.0000 H   0  0  0  0  0  0  0  0  0  0  0  0
  1  2  2  3
  2  3  1  0
  2  4  1  0
  4  5  1  0
  5  6  1  0
  6  7  1  0
  7  8  1  0
  8  9  1  0
  9 10  1  0
 10 11  1  0
 11 12  1  0
 12 13  1  0
 13 14  1  0
 14 15  1  0
 15 16  1  0
 16 17  1  0
 17 18  1  0
 17 19  1  0
 19 20  1  0
 14 21  1  0
 11 22  1  0
  8 23  1  0
  7  5  1  0
 22  9  1  0
 23  5  1  0
 21 11  1  0
 19 15  1  0
  1 24  1  0
  1 25  1  0
  3 26  1  0
  3 27  1  0
  3 28  1  0
  4 29  1  0
  4 30  1  0
  6 31  1  0
  6 32  1  0
  7 33  1  0
  9 34  1  0
 12 35  1  0
 12 36  1  0
 13 37  1  0
 13 38  1  0
 14 39  1  0
 15 40  1  0
 16 41  1  0
 16 42  1  0
 17 43  1  0
 18 44  1  0
 19 45  1  0
 20 46  1  0
 21 47  1  0
 23 48  1  0
 23 49  1  0
M  RAD  2  10   2  22   2
M  END
$$$$
