
     RDKit          2D

 33 38  0  0  0  0  0  0  0  0999 V2000
    7.1641    5.4849    0.0000 C   0  0  0  0  0  0  0  0  0  0  0  0
    6.2000    4.3358    0.0000 C   0  0  0  0  0  0  0  0  0  0  0  0
    5.2358    3.1867    0.0000 C   0  0  0  0  0  0  0  0  0  0  0  0
    4.2716    2.0377    0.0000 C   0  0  0  0  0  0  0  0  0  0  0  0
    3.3074    0.8886    0.0000 C   0  0  0  0  0  0  0  0  0  0  0  0
    1.8302    1.1491    0.0000 C   0  0  0  0  0  0  0  0  0  0  0  0
    0.8660    0.0000    0.0000 C   0  0  0  0  0  0  0  0  0  0  0  0
   -0.4330    0.7500    0.0000 C   0  0  0  0  0  0  0  0  0  0  0  0
   -1.8596    1.2135    0.0000 C   0  0  0  0  0  0  0  0  0  0  0  0
   -3.3514    1.3703    0.0000 C   0  0  0  0  0  0  0  0  0  0  0  0
   -4.2331    0.1568    0.0000 C   0  0  0  0  0  0  0  0  0  0  0  0
   -0.7449   -2.2172    0.0000 C   0  0  0  0  0  0  0  0  0  0  0  0
   -1.8596   -1.2135    0.0000 C   0  0  0  0  0  0  0  0  0  0  0  0
   -0.4330   -0.7500    0.0000 C   0  0  0  0  0  0  0  0  0  0  0  0
   -2.7413    0.0000    0.0000 C   0  0  0  0  0  0  0  0  0  0  0  0
    8.1283    6.6339    0.0000 H   0  0  0  0  0  0  0  0  0  0  0  0
    6.0151    6.4490    0.0000 H   0  0  0  0  0  0  0  0  0  0  0  0
    8.3132    4.5207    0.0000 H   0  0  0  0  0  0  0  0  0  0  0  0
    5.0509    5.3000    0.0000 H   0  0  0  0  0  0  0  0  0  0  0  0
    7.3490    3.3716    0.0000 H   0  0  0  0  0  0  0  0  0  0  0  0
    6.3848    2.2225    0.0000 H   0  0  0  0  0  0  0  0  0  0  0  0
    4.0867    4.1509    0.0000 H   0  0  0  0  0  0  0  0  0  0  0  0
    5.4207    1.0735    0.0000 H   0  0  0  0  0  0  0  0  0  0  0  0
    3.1225    3.0018    0.0000 H   0  0  0  0  0  0  0  0  0  0  0  0
    3.8204   -0.5209    0.0000 H   0  0  0  0  0  0  0  0  0  0  0  0
    1.3172    2.5586    0.0000 H   0  0  0  0  0  0  0  0  0  0  0  0
    1.8302   -1.1491    0.0000 H   0  0  0  0  0  0  0  0  0  0  0  0
    0.1771    2.1203    0.0000 H   0  0  0  0  0  0  0  0  0  0  0  0
   -1.5477    2.6807    0.0000 H   0  0  0  0  0  0  0  0  0  0  0  0
   -3.9615    2.7406    0.0000 H   0  0  0  0  0  0  0  0  0  0  0  0
   -5.6034   -0.4533    0.0000 H   0  0  0  0  0  0  0  0  0  0  0  0
   -0.2814   -3.6438    0.0000 H   0  0  0  0  0  0  0  0  0  0  0  0
   -2.9743   -2.2172    0.0000 H   0  0  0  0  0  0  0  0  0  0  0  0
  1  2  1  0
  2  3  1  0
  3  4  1  0
  4  5  1  0
  5  6  2  3
  6  7  1  0
  7  8  1  0
  8  9  1  0
  9 10  1  0
 10 11  1  0
 11 12  1  0
 12 13  1  0
 13 14  1  0
 13 15  1  0
 14  7  1  6
 14  8  1  0
 15  9  1  1
 15 10  1  0
 15 11  1  0
 14 12  1  0
  1 16  1  0
  1 17  1  0
  1 18  1  0
  2 19  1  0
  2 20  1  0
  3 21  1  0
  3 22  1  0
  4 23  1  0
  4 24  1  0
  5 25  1  0
  6 26  1  0
  7 27  1  6
  8 28  1  6
  9 29  1  6
 10 30  1  6
 11 31  1  6
 12 32  1  6
 13 33  1  6
M  END
$$$$
