
     RDKit          2D

 51 53  0  0  0  0  0  0  0  0999 V2000
    6.6511    6.8944    0.0000 C   0  0  0  0  0  0  0  0  0  0  0  0
    5.6869    5.7453    0.0000 C   0  0  0  0  0  0  0  0  0  0  0  0
    4.7228    4.5963    0.0000 C   0  0  0  0  0  0  0  0  0  0  0  0
    3.7586    3.4472    0.0000 C   0  0  0  0  0  0  0  0  0  0  0  0
    2.7944    2.2981    0.0000 C   0  0  0  0  0  0  0  0  0  0  0  0
    1.8302    1.1491    0.0000 C   0  0  0  0  0  0  0  0  0  0  0  0
    0.8660    0.0000    0.0000 C   0  0  0  0  0  0  0  0  0  0  0  0
   -0.4330    0.7500    0.0000 C   0  0  0  0  0  0  0  0  0  0  0  0
   -1.9330    0.7500    0.0000 C   0  0  0  0  0  0  0  0  0  0  0  0
   -1.9330   -0.7500    0.0000 C   0  0  0  0  0  0  0  0  0  0  0  0
   -0.4330   -0.7500    0.0000 C   0  0  0  0  0  0  0  0  0  0  0  0
    6.8360    4.7812    0.0000 C   0  0  0  0  0  0  0  0  0  0  0  0
    7.9851    3.8170    0.0000 C   0  0  0  0  0  0  0  0  0  0  0  0
    9.1341    2.8528    0.0000 C   0  0  0  0  0  0  0  0  0  0  0  0
   10.5437    2.3398    0.0000 C   0  0  0  0  0  0  0  0  0  0  0  0
   10.2832    0.8625    0.0000 O   0  0  0  0  0  0  0  0  0  0  0  0
   10.2832    3.8170    0.0000 C   0  0  0  0  0  0  0  0  0  0  0  0
   11.6927    4.3300    0.0000 C   0  0  0  0  0  0  0  0  0  0  0  0
    9.5332    5.1160    0.0000 C   0  0  0  0  0  0  0  0  0  0  0  0
    7.6153    8.0435    0.0000 H   0  0  0  0  0  0  0  0  0  0  0  0
    7.3940    6.4120    0.0000 H   0  0  0  0  0  0  0  0  0  0  0  0
    5.5020    7.8586    0.0000 H   0  0  0  0  0  0  0  0  0  0  0  0
    4.5379    6.7095    0.0000 H   0  0  0  0  0  0  0  0  0  0  0  0
    3.5737    5.5604    0.0000 H   0  0  0  0  0  0  0  0  0  0  0  0
    5.3268    3.9485    0.0000 H   0  0  0  0  0  0  0  0  0  0  0  0
    4.9076    2.4830    0.0000 H   0  0  0  0  0  0  0  0  0  0  0  0
    2.6095    4.4114    0.0000 H   0  0  0  0  0  0  0  0  0  0  0  0
    1.6453    3.2623    0.0000 H   0  0  0  0  0  0  0  0  0  0  0  0
    3.9435    1.3340    0.0000 H   0  0  0  0  0  0  0  0  0  0  0  0
    0.8072    2.2461    0.0000 H   0  0  0  0  0  0  0  0  0  0  0  0
    2.9793    0.1849    0.0000 H   0  0  0  0  0  0  0  0  0  0  0  0
    1.8302   -1.1491    0.0000 H   0  0  0  0  0  0  0  0  0  0  0  0
   -0.2243    2.2354    0.0000 H   0  0  0  0  0  0  0  0  0  0  0  0
   -3.4330    0.7500    0.0000 H   0  0  0  0  0  0  0  0  0  0  0  0
   -1.9330    2.2500    0.0000 H   0  0  0  0  0  0  0  0  0  0  0  0
   -1.9330   -2.2500    0.0000 H   0  0  0  0  0  0  0  0  0  0  0  0
   -3.4330   -0.7500    0.0000 H   0  0  0  0  0  0  0  0  0  0  0  0
   -0.0448   -2.1989    0.0000 H   0  0  0  0  0  0  0  0  0  0  0  0
    7.4838    5.3852    0.0000 H   0  0  0  0  0  0  0  0  0  0  0  0
    6.3536    4.0383    0.0000 H   0  0  0  0  0  0  0  0  0  0  0  0
    7.0209    2.6679    0.0000 H   0  0  0  0  0  0  0  0  0  0  0  0
    8.5176    4.9090    0.0000 H   0  0  0  0  0  0  0  0  0  0  0  0
    8.3841    1.5538    0.0000 H   0  0  0  0  0  0  0  0  0  0  0  0
   11.8836    2.1752    0.0000 H   0  0  0  0  0  0  0  0  0  0  0  0
   11.4323   -0.1016    0.0000 H   0  0  0  0  0  0  0  0  0  0  0  0
   13.1023    4.8430    0.0000 H   0  0  0  0  0  0  0  0  0  0  0  0
   11.4195    5.5139    0.0000 H   0  0  0  0  0  0  0  0  0  0  0  0
   12.3057    3.1272    0.0000 H   0  0  0  0  0  0  0  0  0  0  0  0
    8.7832    6.4150    0.0000 H   0  0  0  0  0  0  0  0  0  0  0  0
   10.5035    5.8472    0.0000 H   0  0  0  0  0  0  0  0  0  0  0  0
    8.3652    4.7812    0.0000 H   0  0  0  0  0  0  0  0  0  0  0  0
  1  2  1  0
  2  3  1  0
  3  4  1  0
  4  5  1  0
  5  6  1  0
  6  7  1  0
  7  8  1  0
  8  9  1  0
  9 10  1  0
 10 11  1  0
  2 12  1  0
 12 13  1  0
 13 14  1  0
 14 15  1  0
 15 16  1  0
 15 17  1  0
 17 18  1  0
 17 19  1  0
 11  7  1  0
 17 14  1  0
 11  8  1  0
  1 20  1  0
  1 21  1  0
  1 22  1  0
  2 23  1  1
  3 24  1  0
  3 25  1  0
  4 26  1  0
  4 27  1  0
  5 28  1  0
  5 29  1  0
  6 30  1  0
  6 31  1  0
  7 32  1  6
  8 33  1  6
  9 34  1  0
  9 35  1  0
 10 36  1  0
 10 37  1  0
 11 38  1  6
 12 39  1  0
 12 40  1  0
 13 41  1  0
 13 42  1  0
 14 43  1  6
 15 44  1  1
 16 45  1  0
 18 46  1  0
 18 47  1  0
 18 48  1  0
 19 49  1  0
 19 50  1  0
 19 51  1  0
M  END
$$$$
