
     RDKit          2D

 94105  0  0  0  0  0  0  0  0999 V2000
   -7.3513   -0.3159    0.0000 C   0  0  0  0  0  0  0  0  0  0  0  0
   -6.2906   -1.3766    0.0000 C   0  0  0  0  0  0  0  0  0  0  0  0
   -6.6789   -2.8255    0.0000 C   0  0  0  0  0  0  0  0  0  0  0  0
   -4.8417   -0.9884    0.0000 S   0  0  0  0  0  0  0  0  0  0  0  0
   -3.7811   -2.0490    0.0000 C   0  0  0  0  0  0  0  0  0  0  0  0
   -3.3929   -3.4979    0.0000 C   0  0  0  0  0  0  0  0  0  0  0  0
   -2.0938   -4.2479    0.0000 O   0  0  0  0  0  0  0  0  0  0  0  0
   -0.6449   -3.8597    0.0000 C   0  0  0  0  0  0  0  0  0  0  0  0
   -0.4330   -2.2500    0.0000 C   0  0  0  0  0  0  0  0  0  0  0  0
   -1.7321   -3.0000    0.0000 C   0  0  0  0  0  0  0  0  0  0  0  0
   -1.9249   -3.7735    0.0000 O   0  0  0  0  0  0  0  0  0  0  0  0
   -3.0311   -2.2500    0.0000 C   0  0  0  0  0  0  0  0  0  0  0  0
   -3.0311   -0.7500    0.0000 C   0  0  0  0  0  0  0  0  0  0  0  0
   -1.7321    0.0000    0.0000 C   0  0  0  0  0  0  0  0  0  0  0  0
   -2.6838    1.1593    0.0000 C   0  0  0  0  0  0  0  0  0  0  0  0
   -3.4522    2.4476    0.0000 C   0  0  0  0  0  0  0  0  0  0  0  0
   -4.1837    1.1380    0.0000 C   0  0  0  0  0  0  0  0  0  0  0  0
   -5.1022   -0.0479    0.0000 Mg  0  0  0  0  0  2  0  0  0  0  0  0
   -3.2742   -0.7698    0.0000 C   0  0  0  0  0  0  0  0  0  0  0  0
   -4.7544   -1.0129    0.0000 C   0  0  0  0  0  0  0  0  0  0  0  0
   -5.9729   -0.1382    0.0000 C   0  0  0  0  0  0  0  0  0  0  0  0
   -5.0825   -2.5869    0.0000 C   0  0  0  0  0  0  0  0  0  0  0  0
   -5.4961   -4.0288    0.0000 C   0  0  0  0  0  0  0  0  0  0  0  0
   -4.9831   -5.4384    0.0000 C   0  0  0  0  0  0  0  0  0  0  0  0
   -3.7396   -6.2772    0.0000 C   0  0  0  0  0  0  0  0  0  0  0  0
   -2.2406   -6.2250    0.0000 C   0  0  0  0  0  0  0  0  0  0  0  0
   -1.3171   -7.4071    0.0000 C   0  0  0  0  0  0  0  0  0  0  0  0
   -0.1351   -6.4836    0.0000 C   0  0  0  0  0  0  0  0  0  0  0  0
    1.0470   -5.5602    0.0000 C   0  0  0  0  0  0  0  0  0  0  0  0
    2.2291   -4.6368    0.0000 C   0  0  0  0  0  0  0  0  0  0  0  0
    2.9332   -5.9613    0.0000 C   0  0  0  0  0  0  0  0  0  0  0  0
    3.1419   -7.4467    0.0000 C   0  0  0  0  0  0  0  0  0  0  0  0
    4.4323   -6.0137    0.0000 C   0  0  0  0  0  0  0  0  0  0  0  0
    5.2273   -4.7417    0.0000 C   0  0  0  0  0  0  0  0  0  0  0  0
    4.5231   -3.4172    0.0000 C   0  0  0  0  0  0  0  0  0  0  0  0
    3.0240   -3.3648    0.0000 C   0  0  0  0  0  0  0  0  0  0  0  0
    1.6333   -2.8028    0.0000 C   0  0  0  0  0  0  0  0  0  0  0  0
    0.2426   -2.2408    0.0000 C   0  0  0  0  0  0  0  0  0  0  0  0
   -1.1482   -1.6788    0.0000 O   0  0  0  0  0  0  0  0  0  0  0  0
   -1.0585   -5.3016    0.0000 C   0  0  0  0  0  0  0  0  0  0  0  0
    0.4140   -5.0154    0.0000 C   0  0  0  0  0  0  0  0  0  0  0  0
   -0.4330    0.7500    0.0000 C   0  0  0  0  0  0  0  0  0  0  0  0
    0.8660    0.0000    0.0000 O   0  0  0  0  0  0  0  0  0  0  0  0
   -0.4330   -0.7500    0.0000 C   0  0  0  0  0  0  0  0  0  0  0  0
   -8.8002   -0.7042    0.0000 H   0  0  0  0  0  0  0  0  0  0  0  0
   -7.1426    1.1695    0.0000 H   0  0  0  0  0  0  0  0  0  0  0  0
   -7.0671   -4.2744    0.0000 H   0  0  0  0  0  0  0  0  0  0  0  0
   -8.0696   -2.2635    0.0000 H   0  0  0  0  0  0  0  0  0  0  0  0
   -8.1643   -2.6168    0.0000 H   0  0  0  0  0  0  0  0  0  0  0  0
   -5.2626   -2.2836    0.0000 H   0  0  0  0  0  0  0  0  0  0  0  0
   -4.8817   -3.6808    0.0000 H   0  0  0  0  0  0  0  0  0  0  0  0
   -3.7811   -4.9468    0.0000 H   0  0  0  0  0  0  0  0  0  0  0  0
    0.6341   -4.6433    0.0000 H   0  0  0  0  0  0  0  0  0  0  0  0
    0.7649   -3.1528    0.0000 H   0  0  0  0  0  0  0  0  0  0  0  0
   -4.1100    0.2920    0.0000 H   0  0  0  0  0  0  0  0  0  0  0  0
   -1.4566    2.0218    0.0000 H   0  0  0  0  0  0  0  0  0  0  0  0
   -2.3170    3.4280    0.0000 H   0  0  0  0  0  0  0  0  0  0  0  0
   -4.6149    3.3954    0.0000 H   0  0  0  0  0  0  0  0  0  0  0  0
   -5.4349    1.9653    0.0000 H   0  0  0  0  0  0  0  0  0  0  0  0
   -7.0757    0.8785    0.0000 H   0  0  0  0  0  0  0  0  0  0  0  0
   -7.1165   -1.1089    0.0000 H   0  0  0  0  0  0  0  0  0  0  0  0
   -5.0982    1.0803    0.0000 H   0  0  0  0  0  0  0  0  0  0  0  0
   -6.4420   -3.2209    0.0000 H   0  0  0  0  0  0  0  0  0  0  0  0
   -5.5694   -6.8191    0.0000 H   0  0  0  0  0  0  0  0  0  0  0  0
   -6.4822   -5.4906    0.0000 H   0  0  0  0  0  0  0  0  0  0  0  0
   -3.2267   -7.6868    0.0000 H   0  0  0  0  0  0  0  0  0  0  0  0
   -4.8003   -7.3379    0.0000 H   0  0  0  0  0  0  0  0  0  0  0  0
   -0.8811   -5.5911    0.0000 H   0  0  0  0  0  0  0  0  0  0  0  0
   -0.3937   -8.5891    0.0000 H   0  0  0  0  0  0  0  0  0  0  0  0
   -2.4992   -8.3305    0.0000 H   0  0  0  0  0  0  0  0  0  0  0  0
    0.6374   -7.7695    0.0000 H   0  0  0  0  0  0  0  0  0  0  0  0
    1.8195   -6.8460    0.0000 H   0  0  0  0  0  0  0  0  0  0  0  0
    0.7868   -4.0830    0.0000 H   0  0  0  0  0  0  0  0  0  0  0  0
    1.1144   -3.6330    0.0000 H   0  0  0  0  0  0  0  0  0  0  0  0
    1.6611   -6.7561    0.0000 H   0  0  0  0  0  0  0  0  0  0  0  0
    3.3505   -8.9321    0.0000 H   0  0  0  0  0  0  0  0  0  0  0  0
    4.6417   -7.4206    0.0000 H   0  0  0  0  0  0  0  0  0  0  0  0
    1.6930   -7.8349    0.0000 H   0  0  0  0  0  0  0  0  0  0  0  0
    5.8230   -6.5757    0.0000 H   0  0  0  0  0  0  0  0  0  0  0  0
    4.3015   -7.5080    0.0000 H   0  0  0  0  0  0  0  0  0  0  0  0
    6.4093   -3.8183    0.0000 H   0  0  0  0  0  0  0  0  0  0  0  0
    6.3419   -5.7455    0.0000 H   0  0  0  0  0  0  0  0  0  0  0  0
    4.3145   -1.9318    0.0000 H   0  0  0  0  0  0  0  0  0  0  0  0
    5.9497   -2.9538    0.0000 H   0  0  0  0  0  0  0  0  0  0  0  0
    3.3360   -1.8976    0.0000 H   0  0  0  0  0  0  0  0  0  0  0  0
    2.1953   -1.4120    0.0000 H   0  0  0  0  0  0  0  0  0  0  0  0
    0.9060   -4.1146    0.0000 H   0  0  0  0  0  0  0  0  0  0  0  0
    1.2657   -1.1439    0.0000 H   0  0  0  0  0  0  0  0  0  0  0  0
    0.9699   -0.9289    0.0000 H   0  0  0  0  0  0  0  0  0  0  0  0
   -1.7101   -0.2880    0.0000 H   0  0  0  0  0  0  0  0  0  0  0  0
    1.7734   -4.3815    0.0000 H   0  0  0  0  0  0  0  0  0  0  0  0
    0.5185   -6.5118    0.0000 H   0  0  0  0  0  0  0  0  0  0  0  0
   -0.0495   -3.5888    0.0000 H   0  0  0  0  0  0  0  0  0  0  0  0
   -0.4330    2.2500    0.0000 H   0  0  0  0  0  0  0  0  0  0  0  0
  1  2  2  3
  2  3  1  0
  2  4  1  0
  4  5  1  0
  5  6  1  0
  6  7  1  0
  7  8  1  0
  8  9  1  0
  9 10  1  0
 10 11  2  0
 10 12  1  0
 12 13  1  0
 13 14  1  0
 14 15  1  0
 15 16  1  0
 16 17  1  0
 17 18  1  0
 18 19  1  0
 19 20  1  0
 20 21  1  0
 20 22  1  0
 22 23  1  0
 23 24  1  0
 24 25  1  0
 25 26  1  0
 26 27  1  0
 27 28  1  0
 28 29  1  0
 29 30  1  0
 30 31  1  0
 31 32  1  0
 31 33  1  0
 33 34  1  0
 34 35  1  0
 35 36  1  0
 36 37  1  0
 37 38  1  0
 38 39  1  0
 28 40  1  0
 40 41  1  0
 14 42  1  0
 42 43  1  0
 43 44  1  0
 13  5  1  0
 44 14  1  0
 40  8  1  0
 44 42  1  0
 44  9  1  0
 19 12  1  0
 23 20  1  0
 40 26  1  0
 22 12  1  0
 36 30  1  0
 17 15  1  0
 23 19  1  0
  1 45  1  0
  1 46  1  0
  3 47  1  0
  3 48  1  0
  3 49  1  0
  5 50  1  0
  6 51  1  0
  6 52  1  0
  8 53  1  0
  9 54  1  0
 13 55  1  0
 15 56  1  0
 16 57  1  0
 16 58  1  0
 17 59  1  0
 21 60  1  0
 21 61  1  0
 21 62  1  0
 22 63  1  0
 24 64  1  0
 24 65  1  0
 25 66  1  0
 25 67  1  0
 26 68  1  0
 27 69  1  0
 27 70  1  0
 28 71  1  0
 29 72  1  0
 29 73  1  0
 30 74  1  0
 31 75  1  0
 32 76  1  0
 32 77  1  0
 32 78  1  0
 33 79  1  0
 33 80  1  0
 34 81  1  0
 34 82  1  0
 35 83  1  0
 35 84  1  0
 36 85  1  0
 37 86  1  0
 37 87  1  0
 38 88  1  0
 38 89  1  0
 39 90  1  0
 41 91  1  0
 41 92  1  0
 41 93  1  0
 42 94  1  0
M  END
$$$$
