
     RDKit          2D

 22 22  0  0  0  0  0  0  0  0999 V2000
    5.6915    2.7938    0.0000 C   0  0  0  0  0  0  0  0  0  0  0  0
    4.6309    1.7331    0.0000 C   0  0  0  0  0  0  0  0  0  0  0  0
    3.5702    0.6724    0.0000 C   0  0  0  0  0  0  0  0  0  0  0  0
    2.1213    1.0607    0.0000 C   0  0  0  0  0  0  0  0  0  0  0  0
    1.0607   -0.0000    0.0000 C   0  0  0  0  0  0  0  0  0  0  0  0
   -0.0000   -1.0607    0.0000 O   0  0  0  0  0  0  0  0  0  0  0  0
   -1.0607    0.0000    0.0000 C   0  0  0  0  0  0  0  0  0  0  0  0
   -2.1213   -1.0607    0.0000 O   0  0  0  0  0  0  0  0  0  0  0  0
   -0.0000    1.0607    0.0000 C   0  0  0  0  0  0  0  0  0  0  0  0
   -1.0607    2.1213    0.0000 O   0  0  0  0  0  0  0  0  0  0  0  0
    6.7522    3.8544    0.0000 H   0  0  0  0  0  0  0  0  0  0  0  0
    4.6309    3.8544    0.0000 H   0  0  0  0  0  0  0  0  0  0  0  0
    6.7522    1.7331    0.0000 H   0  0  0  0  0  0  0  0  0  0  0  0
    5.6915    0.6724    0.0000 H   0  0  0  0  0  0  0  0  0  0  0  0
    3.5702    2.7938    0.0000 H   0  0  0  0  0  0  0  0  0  0  0  0
    3.9584   -0.7765    0.0000 H   0  0  0  0  0  0  0  0  0  0  0  0
    1.9126    2.5461    0.0000 H   0  0  0  0  0  0  0  0  0  0  0  0
    2.1213   -1.0607    0.0000 H   0  0  0  0  0  0  0  0  0  0  0  0
   -2.1213    1.0607    0.0000 H   0  0  0  0  0  0  0  0  0  0  0  0
   -3.5702   -0.6724    0.0000 H   0  0  0  0  0  0  0  0  0  0  0  0
    0.9235    2.2427    0.0000 H   0  0  0  0  0  0  0  0  0  0  0  0
   -0.6724    3.5702    0.0000 H   0  0  0  0  0  0  0  0  0  0  0  0
  1  2  1  0
  2  3  1  0
  3  4  2  3
  4  5  1  0
  5  6  1  0
  6  7  1  0
  7  8  1  0
  7  9  1  0
  9 10  1  0
  9  5  1  0
  1 11  1  0
  1 12  1  0
  1 13  1  0
  2 14  1  0
  2 15  1  0
  3 16  1  0
  4 17  1  0
  5 18  1  6
  7 19  1  6
  8 20  1  0
  9 21  1  1
 10 22  1  0
M  END
$$$$
