
     RDKit          2D

 45 48  0  0  0  0  0  0  0  0999 V2000
   -8.2067   -0.3287    0.0000 C   0  0  0  0  0  0  0  0  0  0  0  0
   -7.2030    0.7860    0.0000 C   0  0  0  0  0  0  0  0  0  0  0  0
   -6.1993    1.9007    0.0000 C   0  0  0  0  0  0  0  0  0  0  0  0
   -5.1956    3.0154    0.0000 C   0  0  0  0  0  0  0  0  0  0  0  0
   -6.4091    3.8971    0.0000 C   0  0  0  0  0  0  0  0  0  0  0  0
   -5.9456    5.3237    0.0000 C   0  0  0  0  0  0  0  0  0  0  0  0
   -4.4456    5.3237    0.0000 C   0  0  0  0  0  0  0  0  0  0  0  0
   -2.9784    5.6356    0.0000 C   0  0  0  0  0  0  0  0  0  0  0  0
   -4.6024    6.8155    0.0000 C   0  0  0  0  0  0  0  0  0  0  0  0
   -3.9821    3.8971    0.0000 C   0  0  0  0  0  0  0  0  0  0  0  0
   -3.2321    2.5981    0.0000 C   0  0  0  0  0  0  0  0  0  0  0  0
   -2.4821    1.2990    0.0000 C   0  0  0  0  0  0  0  0  0  0  0  0
   -3.7811    0.5490    0.0000 O   0  0  0  0  0  0  0  0  0  0  0  0
   -1.1830    2.0490    0.0000 C   0  0  0  0  0  0  0  0  0  0  0  0
   -0.4330    0.7500    0.0000 C   0  0  0  0  0  0  0  0  0  0  0  0
    0.8660    0.0000    0.0000 O   0  0  0  0  0  0  0  0  0  0  0  0
   -0.4330   -0.7500    0.0000 C   0  0  0  0  0  0  0  0  0  0  0  0
   -0.4330   -2.2500    0.0000 O   0  0  0  0  0  0  0  0  0  0  0  0
   -1.7321    0.0000    0.0000 C   0  0  0  0  0  0  0  0  0  0  0  0
   -9.2104   -1.4434    0.0000 H   0  0  0  0  0  0  0  0  0  0  0  0
   -9.3214    0.6750    0.0000 H   0  0  0  0  0  0  0  0  0  0  0  0
   -7.0919   -1.3324    0.0000 H   0  0  0  0  0  0  0  0  0  0  0  0
   -8.3177    1.7897    0.0000 H   0  0  0  0  0  0  0  0  0  0  0  0
   -6.0883   -0.2177    0.0000 H   0  0  0  0  0  0  0  0  0  0  0  0
   -6.8523    2.3579    0.0000 H   0  0  0  0  0  0  0  0  0  0  0  0
   -4.9705    1.0404    0.0000 H   0  0  0  0  0  0  0  0  0  0  0  0
   -4.3352    1.7867    0.0000 H   0  0  0  0  0  0  0  0  0  0  0  0
   -7.7794    4.5072    0.0000 H   0  0  0  0  0  0  0  0  0  0  0  0
   -6.8889    3.2605    0.0000 H   0  0  0  0  0  0  0  0  0  0  0  0
   -5.9718    6.8235    0.0000 H   0  0  0  0  0  0  0  0  0  0  0  0
   -7.4128    5.6356    0.0000 H   0  0  0  0  0  0  0  0  0  0  0  0
   -1.5111    5.9474    0.0000 H   0  0  0  0  0  0  0  0  0  0  0  0
   -3.1090    7.1299    0.0000 H   0  0  0  0  0  0  0  0  0  0  0  0
   -2.4900    4.2173    0.0000 H   0  0  0  0  0  0  0  0  0  0  0  0
   -4.7592    8.3073    0.0000 H   0  0  0  0  0  0  0  0  0  0  0  0
   -3.1408    7.1529    0.0000 H   0  0  0  0  0  0  0  0  0  0  0  0
   -6.1021    6.8417    0.0000 H   0  0  0  0  0  0  0  0  0  0  0  0
   -2.5476    4.3356    0.0000 H   0  0  0  0  0  0  0  0  0  0  0  0
   -2.0341    3.5008    0.0000 H   0  0  0  0  0  0  0  0  0  0  0  0
   -4.5311    1.8481    0.0000 H   0  0  0  0  0  0  0  0  0  0  0  0
   -5.0801    1.2990    0.0000 H   0  0  0  0  0  0  0  0  0  0  0  0
    0.1160    2.7990    0.0000 H   0  0  0  0  0  0  0  0  0  0  0  0
   -1.7691    3.4298    0.0000 H   0  0  0  0  0  0  0  0  0  0  0  0
   -1.7321   -3.0000    0.0000 H   0  0  0  0  0  0  0  0  0  0  0  0
   -2.7927   -1.0607    0.0000 H   0  0  0  0  0  0  0  0  0  0  0  0
  1  2  1  0
  2  3  1  0
  3  4  1  0
  4  5  1  0
  5  6  1  0
  6  7  1  0
  7  8  1  0
  7  9  1  0
  7 10  1  0
 10 11  1  0
 11 12  1  0
 12 13  1  6
 12 14  1  0
 14 15  1  0
 15 16  1  6
 16 17  1  0
 17 18  1  1
 17 19  1  0
 10  4  1  0
 19 12  1  0
 17 15  1  0
 19 15  1  0
  1 20  1  0
  1 21  1  0
  1 22  1  0
  2 23  1  0
  2 24  1  0
  3 25  1  0
  3 26  1  0
  4 27  1  6
  5 28  1  0
  5 29  1  0
  6 30  1  0
  6 31  1  0
  8 32  1  0
  8 33  1  0
  8 34  1  0
  9 35  1  0
  9 36  1  0
  9 37  1  0
 10 38  1  6
 11 39  1  0
 11 40  1  0
 13 41  1  0
 14 42  1  0
 14 43  1  0
 18 44  1  0
 19 45  1  6
M  END
$$$$
