
     RDKit          2D

106111  0  0  0  0  0  0  0  0999 V2000
    8.2830    2.8036    0.0000 C   0  0  0  0  0  0  0  0  0  0  0  0
    6.7918    2.6414    0.0000 C   0  0  0  0  0  0  0  0  0  0  0  0
    6.1866    1.2689    0.0000 C   0  0  0  0  0  0  0  0  0  0  0  0
    5.5815   -0.1036    0.0000 C   0  0  0  0  0  0  0  0  0  0  0  0
    4.9763   -1.4761    0.0000 C   0  0  0  0  0  0  0  0  0  0  0  0
    4.3711   -2.8486    0.0000 C   0  0  0  0  0  0  0  0  0  0  0  0
    3.7659   -4.2211    0.0000 C   0  0  0  0  0  0  0  0  0  0  0  0
    3.1608   -5.5936    0.0000 C   0  0  0  0  0  0  0  0  0  0  0  0
    2.5556   -6.9661    0.0000 C   0  0  0  0  0  0  0  0  0  0  0  0
    1.9504   -8.3386    0.0000 C   0  0  0  0  0  0  0  0  0  0  0  0
    1.3452   -9.7111    0.0000 C   0  0  0  0  0  0  0  0  0  0  0  0
    0.5779   -7.7334    0.0000 C   0  0  0  0  0  0  0  0  0  0  0  0
   -0.7946   -7.1283    0.0000 C   0  0  0  0  0  0  0  0  0  0  0  0
    2.9986   -2.2434    0.0000 N   0  0  0  0  0  0  0  0  0  0  0  0
    2.8364   -0.7522    0.0000 C   0  0  0  0  0  0  0  0  0  0  0  0
    3.5818    0.5495    0.0000 C   0  0  0  0  0  0  0  0  0  0  0  0
    5.0501    0.2429    0.0000 C   0  0  0  0  0  0  0  0  0  0  0  0
    5.7954    1.5446    0.0000 C   0  0  0  0  0  0  0  0  0  0  0  0
    7.0121    0.6673    0.0000 C   0  0  0  0  0  0  0  0  0  0  0  0
    6.7951    2.6630    0.0000 P   0  0  0  0  0  0  0  0  0  0  0  0
    4.7877    2.6557    0.0000 C   0  0  0  0  0  0  0  0  0  0  0  0
    3.4196    2.0407    0.0000 C   0  0  0  0  0  0  0  0  0  0  0  0
    2.4119    3.1518    0.0000 C   0  0  0  0  0  0  0  0  0  0  0  0
    3.7800    3.7668    0.0000 O   0  0  0  0  0  0  0  0  0  0  0  0
    3.9315    5.2592    0.0000 C   0  0  0  0  0  0  0  0  0  0  0  0
    0.9436    3.4584    0.0000 C   0  0  0  0  0  0  0  0  0  0  0  0
   -0.3882    2.5095    0.0000 N   0  0  0  0  0  0  0  0  0  0  0  0
   -1.4489    1.4489    0.0000 C   0  0  0  0  0  0  0  0  0  0  0  0
   -1.0607    0.0000    0.0000 C   0  0  0  0  0  0  0  0  0  0  0  0
   -0.0000   -1.0607    0.0000 C   0  0  0  0  0  0  0  0  0  0  0  0
    1.0607    0.0000    0.0000 O   0  0  0  0  0  0  0  0  0  0  0  0
    0.0000    1.0607    0.0000 C   0  0  0  0  0  0  0  0  0  0  0  0
   -0.3066   -2.5290    0.0000 C   0  0  0  0  0  0  0  0  0  0  0  0
   -0.6132   -3.9973    0.0000 F   0  0  0  0  0  0  0  0  0  0  0  0
    1.1617   -2.8356    0.0000 C   0  0  0  0  0  0  0  0  0  0  0  0
    0.8552   -4.3039    0.0000 O   0  0  0  0  0  0  0  0  0  0  0  0
    2.6301   -3.1422    0.0000 C   0  0  0  0  0  0  0  0  0  0  0  0
    2.3235   -4.6105    0.0000 F   0  0  0  0  0  0  0  0  0  0  0  0
    4.0984   -3.4488    0.0000 C   0  0  0  0  0  0  0  0  0  0  0  0
    5.5667   -3.7554    0.0000 C   0  0  0  0  0  0  0  0  0  0  0  0
    7.0351   -4.0619    0.0000 C   0  0  0  0  0  0  0  0  0  0  0  0
    5.2602   -5.2237    0.0000 C   0  0  0  0  0  0  0  0  0  0  0  0
    5.8733   -2.2870    0.0000 C   0  0  0  0  0  0  0  0  0  0  0  0
    6.1799   -0.8187    0.0000 O   0  0  0  0  0  0  0  0  0  0  0  0
    1.4683   -1.3672    0.0000 C   0  0  0  0  0  0  0  0  0  0  0  0
    8.8882    4.1761    0.0000 H   0  0  0  0  0  0  0  0  0  0  0  0
    9.1690    1.5932    0.0000 H   0  0  0  0  0  0  0  0  0  0  0  0
    5.9058    3.8518    0.0000 H   0  0  0  0  0  0  0  0  0  0  0  0
    5.0013    2.1882    0.0000 H   0  0  0  0  0  0  0  0  0  0  0  0
    7.3719    0.3496    0.0000 H   0  0  0  0  0  0  0  0  0  0  0  0
    4.3962    0.8157    0.0000 H   0  0  0  0  0  0  0  0  0  0  0  0
    7.0175   -0.5370    0.0000 H   0  0  0  0  0  0  0  0  0  0  0  0
    3.9119   -0.4192    0.0000 H   0  0  0  0  0  0  0  0  0  0  0  0
    6.4544   -1.7312    0.0000 H   0  0  0  0  0  0  0  0  0  0  0  0
    5.8493   -3.1037    0.0000 H   0  0  0  0  0  0  0  0  0  0  0  0
    4.9512   -5.1404    0.0000 H   0  0  0  0  0  0  0  0  0  0  0  0
    2.2677   -4.1481    0.0000 H   0  0  0  0  0  0  0  0  0  0  0  0
    4.4493   -6.3616    0.0000 H   0  0  0  0  0  0  0  0  0  0  0  0
    1.6826   -5.3385    0.0000 H   0  0  0  0  0  0  0  0  0  0  0  0
    3.9281   -7.5713    0.0000 H   0  0  0  0  0  0  0  0  0  0  0  0
    1.2671   -6.1982    0.0000 H   0  0  0  0  0  0  0  0  0  0  0  0
    3.3229   -8.9438    0.0000 H   0  0  0  0  0  0  0  0  0  0  0  0
    0.7401  -11.0836    0.0000 H   0  0  0  0  0  0  0  0  0  0  0  0
    2.7177  -10.3163    0.0000 H   0  0  0  0  0  0  0  0  0  0  0  0
   -0.0908   -9.2778    0.0000 H   0  0  0  0  0  0  0  0  0  0  0  0
   -0.1901   -9.0219    0.0000 H   0  0  0  0  0  0  0  0  0  0  0  0
    1.0113   -6.2974    0.0000 H   0  0  0  0  0  0  0  0  0  0  0  0
   -2.1671   -6.5231    0.0000 H   0  0  0  0  0  0  0  0  0  0  0  0
   -1.3998   -8.5008    0.0000 H   0  0  0  0  0  0  0  0  0  0  0  0
   -0.1894   -5.7558    0.0000 H   0  0  0  0  0  0  0  0  0  0  0  0
    1.9053   -3.2704    0.0000 H   0  0  0  0  0  0  0  0  0  0  0  0
    4.3353   -0.6944    0.0000 H   0  0  0  0  0  0  0  0  0  0  0  0
    2.0906    0.3873    0.0000 H   0  0  0  0  0  0  0  0  0  0  0  0
    4.1102   -0.9261    0.0000 H   0  0  0  0  0  0  0  0  0  0  0  0
    6.5283   -0.0122    0.0000 H   0  0  0  0  0  0  0  0  0  0  0  0
    8.3267   -0.0551    0.0000 H   0  0  0  0  0  0  0  0  0  0  0  0
    8.0312    1.7680    0.0000 H   0  0  0  0  0  0  0  0  0  0  0  0
    6.4553   -0.7255    0.0000 H   0  0  0  0  0  0  0  0  0  0  0  0
    8.2758    2.9031    0.0000 H   0  0  0  0  0  0  0  0  0  0  0  0
    6.6852    4.1589    0.0000 H   0  0  0  0  0  0  0  0  0  0  0  0
    5.7477    3.8083    0.0000 H   0  0  0  0  0  0  0  0  0  0  0  0
    4.5479    4.1364    0.0000 H   0  0  0  0  0  0  0  0  0  0  0  0
    3.9029    3.4607    0.0000 H   0  0  0  0  0  0  0  0  0  0  0  0
    2.2498    4.6430    0.0000 H   0  0  0  0  0  0  0  0  0  0  0  0
    4.0829    6.7515    0.0000 H   0  0  0  0  0  0  0  0  0  0  0  0
    5.4238    5.1078    0.0000 H   0  0  0  0  0  0  0  0  0  0  0  0
    2.4687    5.5914    0.0000 H   0  0  0  0  0  0  0  0  0  0  0  0
    1.5247    4.8413    0.0000 H   0  0  0  0  0  0  0  0  0  0  0  0
   -0.0641    4.5695    0.0000 H   0  0  0  0  0  0  0  0  0  0  0  0
   -2.8978    1.8371    0.0000 H   0  0  0  0  0  0  0  0  0  0  0  0
   -2.3597   -0.7500    0.0000 H   0  0  0  0  0  0  0  0  0  0  0  0
   -1.7749   -2.2224    0.0000 H   0  0  0  0  0  0  0  0  0  0  0  0
    1.6983   -5.5445    0.0000 H   0  0  0  0  0  0  0  0  0  0  0  0
    3.2829   -1.7917    0.0000 H   0  0  0  0  0  0  0  0  0  0  0  0
    3.2859   -4.7096    0.0000 H   0  0  0  0  0  0  0  0  0  0  0  0
    3.6796   -2.0084    0.0000 H   0  0  0  0  0  0  0  0  0  0  0  0
    8.5034   -4.3685    0.0000 H   0  0  0  0  0  0  0  0  0  0  0  0
    6.9098   -5.5567    0.0000 H   0  0  0  0  0  0  0  0  0  0  0  0
    7.5184   -2.6419    0.0000 H   0  0  0  0  0  0  0  0  0  0  0  0
    5.1348   -6.7184    0.0000 H   0  0  0  0  0  0  0  0  0  0  0  0
    6.6802   -5.7070    0.0000 H   0  0  0  0  0  0  0  0  0  0  0  0
    3.7795   -5.4638    0.0000 H   0  0  0  0  0  0  0  0  0  0  0  0
    7.3681   -2.4123    0.0000 H   0  0  0  0  0  0  0  0  0  0  0  0
    4.5228   -1.6342    0.0000 H   0  0  0  0  0  0  0  0  0  0  0  0
    7.6759   -0.7088    0.0000 H   0  0  0  0  0  0  0  0  0  0  0  0
    0.1591   -2.0992    0.0000 H   0  0  0  0  0  0  0  0  0  0  0  0
  1  2  2  3
  2  3  1  0
  3  4  1  0
  4  5  1  0
  5  6  1  0
  6  7  1  0
  7  8  1  0
  8  9  1  0
  9 10  1  0
 10 11  1  0
 10 12  1  0
 12 13  1  0
  6 14  1  0
 14 15  1  0
 15 16  1  0
 16 17  1  0
 17 18  1  0
 18 19  1  0
 18 20  1  1
 18 21  1  0
 21 22  1  0
 22 23  1  0
 23 24  1  0
 24 25  1  0
 23 26  1  0
 26 27  1  0
 27 28  1  0
 28 29  1  0
 29 30  1  0
 30 31  1  1
 32 31  1  6
 30 33  1  0
 33 34  1  0
 33 35  1  0
 35 36  1  6
 35 37  1  0
 37 38  1  0
 37 39  1  0
 39 40  1  0
 40 41  1  0
 40 42  1  0
 40 43  1  0
 43 44  1  0
 35 45  1  0
 45 15  1  0
 22 16  1  0
 32 27  1  0
 32 28  1  0
 32 29  1  0
 45 30  1  0
  1 46  1  0
  1 47  1  0
  2 48  1  0
  3 49  1  0
  3 50  1  0
  4 51  1  0
  4 52  1  0
  5 53  1  0
  5 54  1  0
  6 55  1  1
  7 56  1  0
  7 57  1  0
  8 58  1  0
  8 59  1  0
  9 60  1  0
  9 61  1  0
 10 62  1  6
 11 63  1  0
 11 64  1  0
 11 65  1  0
 12 66  1  0
 12 67  1  0
 13 68  1  0
 13 69  1  0
 13 70  1  0
 14 71  1  0
 15 72  1  6
 16 73  1  1
 17 74  1  0
 17 75  1  0
 19 76  1  0
 19 77  1  0
 19 78  1  0
 20 79  1  0
 20 80  1  0
 21 81  1  0
 21 82  1  0
 22 83  1  6
 23 84  1  6
 25 85  1  0
 25 86  1  0
 25 87  1  0
 26 88  1  0
 26 89  1  0
 28 90  1  6
 29 91  1  1
 33 92  1  6
 36 93  1  0
 37 94  1  1
 39 95  1  0
 39 96  1  0
 41 97  1  0
 41 98  1  0
 41 99  1  0
 42100  1  0
 42101  1  0
 42102  1  0
 43103  1  0
 43104  1  0
 44105  1  0
 45106  1  1
M  END
$$$$
