
     RDKit          3D

 13 15  0  0  0  0  0  0  0  0999 V2000
   18.9774  -11.8324   -3.3691 Cl  0  0  0  0  0  0  0  0  0  0  0  0
   18.4519  -10.3858   -2.4351 C   0  0  0  0  0  0  0  0  0  0  0  0
   19.2742   -9.0979   -2.5893 C   0  0  0  0  0  0  0  0  0  0  0  0
   18.2438  -10.7247   -0.9721 C   0  0  0  0  0  0  0  0  0  0  0  0
   18.4220   -7.8841   -2.3360 C   0  0  0  0  0  0  0  0  0  0  0  0
   18.0700   -7.1107   -3.3708 C   0  0  0  0  0  0  0  0  0  0  0  0
   18.5801   -7.4318   -4.7486 C   0  0  0  0  0  0  0  0  0  0  0  0
   20.0748   -7.7662   -4.6599 C   0  0  0  0  0  0  0  0  0  0  0  0
   19.5104  -10.0083   -1.3860 C   0  0  0  0  0  0  0  0  0  0  0  0
   20.3523   -8.9878   -3.7286 C   0  0  0  0  0  0  0  0  0  0  0  0
   21.8106   -8.9235   -3.1729 C   0  0  0  0  0  0  0  0  0  0  0  0
   22.6978  -10.0720   -3.6812 C   0  0  0  0  0  0  0  0  0  0  0  0
   23.0951   -9.8836   -5.1447 C   0  0  0  0  0  0  0  0  0  0  0  0
  2  1  1  0
  3  2  1  0
  4  2  1  0
  5  3  1  0
  6  5  2  0
  7  6  1  0
  8  7  1  0
  9  2  1  0
  9  3  1  0
  9  4  1  0
 10  3  1  0
 10  8  1  0
 11 10  1  0
 12 11  1  0
 13 12  1  0
M  END
$$$$
