
     RDKit          2D

 91104  0  0  0  0  0  0  0  0999 V2000
   -3.5677    3.1965    0.0000 C   0  0  0  0  0  0  0  0  0  0  0  0
   -2.9937    1.8107    0.0000 C   0  0  0  0  0  0  0  0  0  0  0  0
   -4.0543    0.7500    0.0000 C   0  0  0  0  0  0  0  0  0  0  0  0
   -5.5543    0.7500    0.0000 C   0  0  0  0  0  0  0  0  0  0  0  0
   -5.5543   -0.7500    0.0000 C   0  0  0  0  0  0  0  0  0  0  0  0
   -4.0543   -0.7500    0.0000 C   0  0  0  0  0  0  0  0  0  0  0  0
   -2.9937   -1.8107    0.0000 C   0  0  0  0  0  0  0  0  0  0  0  0
   -1.4937   -1.8107    0.0000 C   0  0  0  0  0  0  0  0  0  0  0  0
   -1.2979   -3.2978    0.0000 C   0  0  0  0  0  0  0  0  0  0  0  0
   -0.6521   -4.6517    0.0000 C   0  0  0  0  0  0  0  0  0  0  0  0
    0.8351   -4.4559    0.0000 C   0  0  0  0  0  0  0  0  0  0  0  0
    1.2780   -2.9587    0.0000 C   0  0  0  0  0  0  0  0  0  0  0  0
    0.0879   -3.8719    0.0000 C   0  0  0  0  0  0  0  0  0  0  0  0
   -0.7180   -5.1369    0.0000 C   0  0  0  0  0  0  0  0  0  0  0  0
   -1.5240   -6.4020    0.0000 C   0  0  0  0  0  0  0  0  0  0  0  0
   -2.3299   -7.6671    0.0000 C   0  0  0  0  0  0  0  0  0  0  0  0
   -0.9875   -8.3364    0.0000 C   0  0  0  0  0  0  0  0  0  0  0  0
    0.1864   -9.2702    0.0000 C   0  0  0  0  0  0  0  0  0  0  0  0
    1.3098   -8.2763    0.0000 C   0  0  0  0  0  0  0  0  0  0  0  0
    2.4333   -7.2823    0.0000 C   0  0  0  0  0  0  0  0  0  0  0  0
    2.1342   -5.8124    0.0000 C   0  0  0  0  0  0  0  0  0  0  0  0
    3.5567   -6.2884    0.0000 C   0  0  0  0  0  0  0  0  0  0  0  0
    4.9792   -6.7643    0.0000 C   0  0  0  0  0  0  0  0  0  0  0  0
    5.6949   -5.4461    0.0000 C   0  0  0  0  0  0  0  0  0  0  0  0
    3.8558   -7.7583    0.0000 C   0  0  0  0  0  0  0  0  0  0  0  0
   -1.2092   -9.8199    0.0000 Al  0  0  0  0  0  3  0  0  0  0  0  0
   -2.6887  -10.0675    0.0000 C   0  0  0  0  0  0  0  0  0  0  0  0
   -4.1872  -10.0021    0.0000 C   0  0  0  0  0  0  0  0  0  0  0  0
   -5.4523   -9.1961    0.0000 C   0  0  0  0  0  0  0  0  0  0  0  0
   -6.7174   -8.3902    0.0000 C   0  0  0  0  0  0  0  0  0  0  0  0
   -4.6464   -7.9310    0.0000 C   0  0  0  0  0  0  0  0  0  0  0  0
   -3.3813   -8.7370    0.0000 C   0  0  0  0  0  0  0  0  0  0  0  0
    0.8660   -1.5000    0.0000 C   0  0  0  0  0  0  0  0  0  0  0  0
    2.1651   -0.7500    0.0000 C   0  0  0  0  0  0  0  0  0  0  0  0
    3.6423   -0.4895    0.0000 C   0  0  0  0  0  0  0  0  0  0  0  0
    2.1651    0.7500    0.0000 N   0  0  0  0  0  0  0  0  0  0  0  0
    0.8660    1.5000    0.0000 C   0  0  0  0  0  0  0  0  0  0  0  0
   -1.4937    1.8107    0.0000 C   0  0  0  0  0  0  0  0  0  0  0  0
   -0.4330    0.7500    0.0000 C   0  0  0  0  0  0  0  0  0  0  0  0
    0.8660    0.0000    0.0000 C   0  0  0  0  0  0  0  0  0  0  0  0
   -0.4330   -0.7500    0.0000 C   0  0  0  0  0  0  0  0  0  0  0  0
   -2.6546    4.3865    0.0000 H   0  0  0  0  0  0  0  0  0  0  0  0
   -5.0549    3.3923    0.0000 H   0  0  0  0  0  0  0  0  0  0  0  0
   -4.6284    2.1358    0.0000 H   0  0  0  0  0  0  0  0  0  0  0  0
   -7.0543    0.7500    0.0000 H   0  0  0  0  0  0  0  0  0  0  0  0
   -5.5543    2.2500    0.0000 H   0  0  0  0  0  0  0  0  0  0  0  0
   -5.5543   -2.2500    0.0000 H   0  0  0  0  0  0  0  0  0  0  0  0
   -7.0543   -0.7500    0.0000 H   0  0  0  0  0  0  0  0  0  0  0  0
   -4.7930   -2.0555    0.0000 H   0  0  0  0  0  0  0  0  0  0  0  0
   -4.1916   -2.7134    0.0000 H   0  0  0  0  0  0  0  0  0  0  0  0
   -2.6054   -3.2595    0.0000 H   0  0  0  0  0  0  0  0  0  0  0  0
   -0.6014   -3.0164    0.0000 H   0  0  0  0  0  0  0  0  0  0  0  0
   -2.5903   -4.0591    0.0000 H   0  0  0  0  0  0  0  0  0  0  0  0
   -1.6656   -5.7576    0.0000 H   0  0  0  0  0  0  0  0  0  0  0  0
    2.1002   -5.2618    0.0000 H   0  0  0  0  0  0  0  0  0  0  0  0
    2.7234   -3.3595    0.0000 H   0  0  0  0  0  0  0  0  0  0  0  0
    0.9158   -5.1227    0.0000 H   0  0  0  0  0  0  0  0  0  0  0  0
    0.4394   -6.0911    0.0000 H   0  0  0  0  0  0  0  0  0  0  0  0
   -2.0719   -4.4912    0.0000 H   0  0  0  0  0  0  0  0  0  0  0  0
   -0.1015   -6.8779    0.0000 H   0  0  0  0  0  0  0  0  0  0  0  0
   -2.7891   -5.5961    0.0000 H   0  0  0  0  0  0  0  0  0  0  0  0
   -3.3812   -6.5972    0.0000 H   0  0  0  0  0  0  0  0  0  0  0  0
   -0.1816   -7.0713    0.0000 H   0  0  0  0  0  0  0  0  0  0  0  0
    0.9701  -10.5491    0.0000 H   0  0  0  0  0  0  0  0  0  0  0  0
    2.3038   -9.3997    0.0000 H   0  0  0  0  0  0  0  0  0  0  0  0
    0.6173   -6.9457    0.0000 H   0  0  0  0  0  0  0  0  0  0  0  0
    0.6507   -6.0342    0.0000 H   0  0  0  0  0  0  0  0  0  0  0  0
    2.5351   -4.3670    0.0000 H   0  0  0  0  0  0  0  0  0  0  0  0
    6.1531   -7.6981    0.0000 H   0  0  0  0  0  0  0  0  0  0  0  0
    6.4107   -4.1279    0.0000 H   0  0  0  0  0  0  0  0  0  0  0  0
    7.0132   -6.1619    0.0000 H   0  0  0  0  0  0  0  0  0  0  0  0
    4.3767   -4.7304    0.0000 H   0  0  0  0  0  0  0  0  0  0  0  0
    4.1548   -9.2282    0.0000 H   0  0  0  0  0  0  0  0  0  0  0  0
   -2.5971  -11.5647    0.0000 H   0  0  0  0  0  0  0  0  0  0  0  0
   -4.6383  -11.4327    0.0000 H   0  0  0  0  0  0  0  0  0  0  0  0
   -6.2583  -10.4612    0.0000 H   0  0  0  0  0  0  0  0  0  0  0  0
   -7.9825   -7.5842    0.0000 H   0  0  0  0  0  0  0  0  0  0  0  0
   -7.5233   -9.6553    0.0000 H   0  0  0  0  0  0  0  0  0  0  0  0
   -6.0717   -7.0363    0.0000 H   0  0  0  0  0  0  0  0  0  0  0  0
   -4.0006   -6.5771    0.0000 H   0  0  0  0  0  0  0  0  0  0  0  0
   -5.8038   -6.9769    0.0000 H   0  0  0  0  0  0  0  0  0  0  0  0
    1.2290   -2.9554    0.0000 H   0  0  0  0  0  0  0  0  0  0  0  0
    2.6781   -2.1595    0.0000 H   0  0  0  0  0  0  0  0  0  0  0  0
    5.1195   -0.2291    0.0000 H   0  0  0  0  0  0  0  0  0  0  0  0
    3.9027   -1.9667    0.0000 H   0  0  0  0  0  0  0  0  0  0  0  0
    3.5638    1.0084    0.0000 H   0  0  0  0  0  0  0  0  0  0  0  0
    3.3630    1.6528    0.0000 H   0  0  0  0  0  0  0  0  0  0  0  0
    0.8660    3.0000    0.0000 H   0  0  0  0  0  0  0  0  0  0  0  0
   -0.9196    3.1965    0.0000 H   0  0  0  0  0  0  0  0  0  0  0  0
    2.0796    0.8816    0.0000 H   0  0  0  0  0  0  0  0  0  0  0  0
    2.0796   -0.8816    0.0000 H   0  0  0  0  0  0  0  0  0  0  0  0
  1  2  2  3
  2  3  1  0
  3  4  1  0
  4  5  1  0
  5  6  1  0
  6  7  1  0
  7  8  1  0
  8  9  1  0
  9 10  1  0
 10 11  2  0
 11 12  1  0
 12 13  1  0
 13 14  1  0
 14 15  1  0
 15 16  1  0
 16 17  1  0
 17 18  1  0
 18 19  1  0
 19 20  1  0
 20 21  1  0
 21 22  1  0
 22 23  1  0
 23 24  1  0
 23 25  1  0
 18 26  1  0
 26 27  1  0
 27 28  1  0
 28 29  1  0
 29 30  1  0
 29 31  1  0
 31 32  1  0
 12 33  1  0
 33 34  1  0
 34 35  1  0
 34 36  1  0
 36 37  1  0
 37 38  1  0
 38 39  1  0
 39 40  1  0
 40 41  1  0
 38  2  1  0
 41 39  1  0
  6  3  1  0
 41  8  1  0
 13  9  1  0
 32 16  1  0
 41 33  1  0
 26 17  1  0
 32 27  1  0
 39 37  1  0
 22 20  1  0
 32 28  1  0
 25 20  1  0
 25 22  1  0
  1 42  1  0
  1 43  1  0
  3 44  1  0
  4 45  1  0
  4 46  1  0
  5 47  1  0
  5 48  1  0
  6 49  1  0
  7 50  1  0
  7 51  1  0
  8 52  1  0
  9 53  1  0
 10 54  1  0
 11 55  1  0
 12 56  1  0
 13 57  1  0
 14 58  1  0
 14 59  1  0
 15 60  1  0
 15 61  1  0
 16 62  1  0
 17 63  1  0
 18 64  1  0
 19 65  1  0
 19 66  1  0
 21 67  1  0
 21 68  1  0
 23 69  1  0
 24 70  1  0
 24 71  1  0
 24 72  1  0
 25 73  1  0
 27 74  1  0
 28 75  1  0
 29 76  1  0
 30 77  1  0
 30 78  1  0
 30 79  1  0
 31 80  1  0
 31 81  1  0
 33 82  1  0
 34 83  1  0
 35 84  1  0
 35 85  1  0
 35 86  1  0
 36 87  1  0
 37 88  1  0
 38 89  1  0
 40 90  1  0
 40 91  1  0
M  END
$$$$
