
     RDKit          2D

 30 35  0  0  0  0  0  0  0  0999 V2000
    2.7045    1.9814    0.0000 C   0  0  0  0  0  0  0  0  0  0  0  0
    2.2623    0.5480    0.0000 C   0  0  0  0  0  0  0  0  0  0  0  0
    0.8660    0.0000    0.0000 C   0  0  0  0  0  0  0  0  0  0  0  0
   -0.4330    0.7500    0.0000 C   0  0  0  0  0  0  0  0  0  0  0  0
   -0.6566    2.2332    0.0000 C   0  0  0  0  0  0  0  0  0  0  0  0
    0.3637    3.3328    0.0000 C   0  0  0  0  0  0  0  0  0  0  0  0
    1.8595    3.2207    0.0000 C   0  0  0  0  0  0  0  0  0  0  0  0
    0.9068    4.3794    0.0000 C   0  0  0  0  0  0  0  0  0  0  0  0
   -0.4895    3.8313    0.0000 O   0  0  0  0  0  0  0  0  0  0  0  0
   -1.7321    0.0000    0.0000 C   0  0  0  0  0  0  0  0  0  0  0  0
   -2.4821   -1.2990    0.0000 C   0  0  0  0  0  0  0  0  0  0  0  0
   -2.4821   -2.7990    0.0000 C   0  0  0  0  0  0  0  0  0  0  0  0
   -1.1830   -2.0490    0.0000 C   0  0  0  0  0  0  0  0  0  0  0  0
   -0.4330   -0.7500    0.0000 C   0  0  0  0  0  0  0  0  0  0  0  0
    4.0852    1.3953    0.0000 H   0  0  0  0  0  0  0  0  0  0  0  0
    3.7247    3.0809    0.0000 H   0  0  0  0  0  0  0  0  0  0  0  0
    2.4859   -0.9352    0.0000 H   0  0  0  0  0  0  0  0  0  0  0  0
    3.7333    0.2544    0.0000 H   0  0  0  0  0  0  0  0  0  0  0  0
    1.5169   -1.3515    0.0000 H   0  0  0  0  0  0  0  0  0  0  0  0
   -2.0899    2.6754    0.0000 H   0  0  0  0  0  0  0  0  0  0  0  0
    0.4073    4.1288    0.0000 H   0  0  0  0  0  0  0  0  0  0  0  0
   -0.7153    4.3749    0.0000 H   0  0  0  0  0  0  0  0  0  0  0  0
    2.7622    4.4187    0.0000 H   0  0  0  0  0  0  0  0  0  0  0  0
    2.0486    5.3521    0.0000 H   0  0  0  0  0  0  0  0  0  0  0  0
    0.2159    5.7107    0.0000 H   0  0  0  0  0  0  0  0  0  0  0  0
   -2.7927    1.0607    0.0000 H   0  0  0  0  0  0  0  0  0  0  0  0
   -3.9309   -0.9108    0.0000 H   0  0  0  0  0  0  0  0  0  0  0  0
   -3.9593   -3.0595    0.0000 H   0  0  0  0  0  0  0  0  0  0  0  0
   -1.9690   -4.2086    0.0000 H   0  0  0  0  0  0  0  0  0  0  0  0
   -0.1224   -3.1097    0.0000 H   0  0  0  0  0  0  0  0  0  0  0  0
  1  2  1  0
  2  3  1  0
  3  4  1  0
  4  5  1  0
  5  6  1  0
  6  7  1  0
  7  8  1  0
  8  9  1  0
  4 10  1  0
 10 11  1  0
 11 12  1  0
 12 13  1  0
 13 14  1  0
  7  1  1  0
 14 10  1  0
 14  3  1  0
 14  4  1  0
  9  5  1  0
 13 11  1  0
  1 15  1  0
  1 16  1  0
  2 17  1  0
  2 18  1  0
  3 19  1  0
  5 20  1  0
  6 21  1  0
  6 22  1  0
  7 23  1  0
  8 24  1  0
  8 25  1  0
 10 26  1  0
 11 27  1  0
 12 28  1  0
 12 29  1  0
 13 30  1  0
M  END
$$$$
