
     RDKit          2D

 46 53  0  0  0  0  0  0  0  0999 V2000
   -7.5360   -8.9142    0.0000 C   0  0  0  0  0  0  0  0  0  0  0  0
   -6.4213   -7.9105    0.0000 C   0  0  0  0  0  0  0  0  0  0  0  0
   -5.3066   -6.9068    0.0000 C   0  0  0  0  0  0  0  0  0  0  0  0
   -4.1918   -5.9031    0.0000 C   0  0  0  0  0  0  0  0  0  0  0  0
   -3.0098   -6.8266    0.0000 C   0  0  0  0  0  0  0  0  0  0  0  0
   -2.8011   -5.3412    0.0000 C   0  0  0  0  0  0  0  0  0  0  0  0
   -3.1129   -3.8740    0.0000 C   0  0  0  0  0  0  0  0  0  0  0  0
   -3.4248   -2.4068    0.0000 C   0  0  0  0  0  0  0  0  0  0  0  0
   -1.9330   -2.2500    0.0000 C   0  0  0  0  0  0  0  0  0  0  0  0
   -3.2321   -1.5000    0.0000 C   0  0  0  0  0  0  0  0  0  0  0  0
   -4.5311   -0.7500    0.0000 C   0  0  0  0  0  0  0  0  0  0  0  0
   -4.5311    0.7500    0.0000 C   0  0  0  0  0  0  0  0  0  0  0  0
   -5.2811    2.0490    0.0000 C   0  0  0  0  0  0  0  0  0  0  0  0
   -3.2321    1.5000    0.0000 C   0  0  0  0  0  0  0  0  0  0  0  0
   -1.9330    0.7500    0.0000 C   0  0  0  0  0  0  0  0  0  0  0  0
   -0.4330    0.7500    0.0000 C   0  0  0  0  0  0  0  0  0  0  0  0
    0.8660    0.0000    0.0000 C   0  0  0  0  0  0  0  0  0  0  0  0
   -0.4330   -0.7500    0.0000 C   0  0  0  0  0  0  0  0  0  0  0  0
   -1.9330   -0.7500    0.0000 C   0  0  0  0  0  0  0  0  0  0  0  0
   -5.8301   -0.0000    0.0000 C   0  0  0  0  0  0  0  0  0  0  0  0
   -8.6507   -9.9179    0.0000 H   0  0  0  0  0  0  0  0  0  0  0  0
   -6.5323  -10.0290    0.0000 H   0  0  0  0  0  0  0  0  0  0  0  0
   -8.5397   -7.7995    0.0000 H   0  0  0  0  0  0  0  0  0  0  0  0
   -5.4176   -9.0253    0.0000 H   0  0  0  0  0  0  0  0  0  0  0  0
   -7.4250   -6.7958    0.0000 H   0  0  0  0  0  0  0  0  0  0  0  0
   -4.5323   -8.0127    0.0000 H   0  0  0  0  0  0  0  0  0  0  0  0
   -6.3102   -5.7921    0.0000 H   0  0  0  0  0  0  0  0  0  0  0  0
   -5.0414   -4.8540    0.0000 H   0  0  0  0  0  0  0  0  0  0  0  0
   -1.5832   -7.2902    0.0000 H   0  0  0  0  0  0  0  0  0  0  0  0
   -3.4936   -8.0870    0.0000 H   0  0  0  0  0  0  0  0  0  0  0  0
   -1.3020   -5.2889    0.0000 H   0  0  0  0  0  0  0  0  0  0  0  0
   -2.0236   -3.7787    0.0000 H   0  0  0  0  0  0  0  0  0  0  0  0
   -4.4578   -3.9916    0.0000 H   0  0  0  0  0  0  0  0  0  0  0  0
   -4.8514   -2.8703    0.0000 H   0  0  0  0  0  0  0  0  0  0  0  0
   -1.2749   -3.1233    0.0000 H   0  0  0  0  0  0  0  0  0  0  0  0
   -2.8187   -0.0581    0.0000 H   0  0  0  0  0  0  0  0  0  0  0  0
   -5.2811   -2.0490    0.0000 H   0  0  0  0  0  0  0  0  0  0  0  0
   -6.0311    3.3481    0.0000 H   0  0  0  0  0  0  0  0  0  0  0  0
   -4.0832    2.9518    0.0000 H   0  0  0  0  0  0  0  0  0  0  0  0
   -6.5801    1.2990    0.0000 H   0  0  0  0  0  0  0  0  0  0  0  0
   -3.0492    2.9888    0.0000 H   0  0  0  0  0  0  0  0  0  0  0  0
   -1.5448    2.1989    0.0000 H   0  0  0  0  0  0  0  0  0  0  0  0
   -0.0448    2.1989    0.0000 H   0  0  0  0  0  0  0  0  0  0  0  0
    1.8302    1.1491    0.0000 H   0  0  0  0  0  0  0  0  0  0  0  0
    1.8302   -1.1491    0.0000 H   0  0  0  0  0  0  0  0  0  0  0  0
   -0.0448   -2.1989    0.0000 H   0  0  0  0  0  0  0  0  0  0  0  0
  1  2  1  0
  2  3  1  0
  3  4  1  0
  4  5  1  0
  5  6  1  0
  6  7  1  0
  7  8  1  0
  8  9  1  0
  9 10  1  0
 10 11  1  0
 11 12  1  0
 12 13  1  0
 12 14  1  0
 14 15  1  0
 15 16  1  0
 16 17  1  0
 17 18  1  0
 18 19  1  0
 14 20  1  0
  6  4  1  0
 20  8  1  0
 19  9  1  0
 19 10  1  0
 20 11  1  0
 20 12  1  0
 19 15  1  0
 18 16  1  0
  1 21  1  0
  1 22  1  0
  1 23  1  0
  2 24  1  0
  2 25  1  0
  3 26  1  0
  3 27  1  0
  4 28  1  0
  5 29  1  0
  5 30  1  0
  6 31  1  0
  7 32  1  0
  7 33  1  0
  8 34  1  0
  9 35  1  0
 10 36  1  0
 11 37  1  0
 13 38  1  0
 13 39  1  0
 13 40  1  0
 14 41  1  0
 15 42  1  0
 16 43  1  0
 17 44  1  0
 17 45  1  0
 18 46  1  0
M  END
$$$$
