
     RDKit          2D

 32 32  0  0  0  0  0  0  0  0999 V2000
    6.2550   -1.1867    0.0000 N   0  0  0  0  0  0  0  0  0  0  0  0
    4.7718   -1.4103    0.0000 C   0  0  0  0  0  0  0  0  0  0  0  0
    3.8366   -0.2375    0.0000 C   0  0  0  0  0  0  0  0  0  0  0  0
    2.6638   -1.1727    0.0000 O   0  0  0  0  0  0  0  0  0  0  0  0
    2.9013    0.9352    0.0000 C   0  0  0  0  0  0  0  0  0  0  0  0
    1.9661    2.1080    0.0000 C   0  0  0  0  0  0  0  0  0  0  0  0
    1.0309    3.2807    0.0000 N   0  0  0  0  0  0  0  0  0  0  0  0
    1.5789    4.6770    0.0000 O   0  0  0  0  0  0  0  0  0  0  0  0
    1.7286    0.0000    0.0000 C   0  0  0  0  0  0  0  0  0  0  0  0
    1.0777    1.3515    0.0000 C   0  0  0  0  0  0  0  0  0  0  0  0
   -0.3846    1.6852    0.0000 C   0  0  0  0  0  0  0  0  0  0  0  0
   -1.5574    0.7500    0.0000 C   0  0  0  0  0  0  0  0  0  0  0  0
   -1.5574   -0.7500    0.0000 O   0  0  0  0  0  0  0  0  0  0  0  0
   -0.3846   -1.6852    0.0000 C   0  0  0  0  0  0  0  0  0  0  0  0
    0.2662   -3.0367    0.0000 N   0  0  0  0  0  0  0  0  0  0  0  0
    1.0777   -1.3515    0.0000 N   0  0  0  0  0  0  0  0  0  0  0  0
    7.1903   -2.3594    0.0000 H   0  0  0  0  0  0  0  0  0  0  0  0
    4.2238   -2.8066    0.0000 H   0  0  0  0  0  0  0  0  0  0  0  0
    5.0093    0.6977    0.0000 H   0  0  0  0  0  0  0  0  0  0  0  0
    3.0665   -2.6177    0.0000 H   0  0  0  0  0  0  0  0  0  0  0  0
    4.0741    1.8705    0.0000 H   0  0  0  0  0  0  0  0  0  0  0  0
    3.1388    3.0432    0.0000 H   0  0  0  0  0  0  0  0  0  0  0  0
    1.2411    1.7765    0.0000 H   0  0  0  0  0  0  0  0  0  0  0  0
    2.6402   -1.1912    0.0000 H   0  0  0  0  0  0  0  0  0  0  0  0
    1.7014    2.7157    0.0000 H   0  0  0  0  0  0  0  0  0  0  0  0
   -0.7184    3.1476    0.0000 H   0  0  0  0  0  0  0  0  0  0  0  0
   -3.0198    0.4162    0.0000 H   0  0  0  0  0  0  0  0  0  0  0  0
   -2.2082    2.1015    0.0000 H   0  0  0  0  0  0  0  0  0  0  0  0
   -1.5574   -2.6205    0.0000 H   0  0  0  0  0  0  0  0  0  0  0  0
   -0.5788   -4.2760    0.0000 H   0  0  0  0  0  0  0  0  0  0  0  0
    1.7372   -3.3303    0.0000 H   0  0  0  0  0  0  0  0  0  0  0  0
    2.0130   -2.5242    0.0000 H   0  0  0  0  0  0  0  0  0  0  0  0
  1  2  2  3
  2  3  1  0
  3  4  1  0
  3  5  1  0
  5  6  1  0
  6  7  1  0
  7  8  2  0
  5  9  1  0
  9 10  1  0
 10 11  2  0
 11 12  1  0
 12 13  1  0
 13 14  1  0
 14 15  1  0
 14 16  1  0
 16  9  1  0
  1 17  1  0
  2 18  1  0
  3 19  1  1
  4 20  1  0
  5 21  1  1
  6 22  1  0
  6 23  1  0
  9 24  1  1
 10 25  1  0
 11 26  1  0
 12 27  1  0
 12 28  1  0
 14 29  1  1
 15 30  1  0
 15 31  1  0
 16 32  1  0
M  END
$$$$
