
     RDKit          2D

 41 45  0  0  0  0  0  0  0  0999 V2000
   -1.9721   -7.9786    0.0000 O   0  0  0  0  0  0  0  0  0  0  0  0
   -1.4591   -6.5691    0.0000 C   0  0  0  0  0  0  0  0  0  0  0  0
   -0.9460   -5.1595    0.0000 C   0  0  0  0  0  0  0  0  0  0  0  0
   -0.4330   -3.7500    0.0000 C   0  0  0  0  0  0  0  0  0  0  0  0
   -1.7321   -3.0000    0.0000 C   0  0  0  0  0  0  0  0  0  0  0  0
   -1.7321   -1.5000    0.0000 C   0  0  0  0  0  0  0  0  0  0  0  0
   -3.0311   -0.7500    0.0000 C   0  0  0  0  0  0  0  0  0  0  0  0
   -3.0311    0.7500    0.0000 C   0  0  0  0  0  0  0  0  0  0  0  0
   -3.7811    2.0490    0.0000 C   0  0  0  0  0  0  0  0  0  0  0  0
   -4.5311    3.3481    0.0000 C   0  0  0  0  0  0  0  0  0  0  0  0
   -3.2321    4.0981    0.0000 C   0  0  0  0  0  0  0  0  0  0  0  0
   -2.4821    2.7990    0.0000 C   0  0  0  0  0  0  0  0  0  0  0  0
   -1.7321    1.5000    0.0000 C   0  0  0  0  0  0  0  0  0  0  0  0
   -0.4330    0.7500    0.0000 C   0  0  0  0  0  0  0  0  0  0  0  0
    0.8660    0.0000    0.0000 N   0  0  0  0  0  0  0  0  0  0  0  0
   -0.4330   -0.7500    0.0000 C   0  0  0  0  0  0  0  0  0  0  0  0
    1.0442   -4.0105    0.0000 C   0  0  0  0  0  0  0  0  0  0  0  0
    0.5312   -2.6009    0.0000 C   0  0  0  0  0  0  0  0  0  0  0  0
   -1.0079   -9.1277    0.0000 H   0  0  0  0  0  0  0  0  0  0  0  0
   -0.0495   -7.0821    0.0000 H   0  0  0  0  0  0  0  0  0  0  0  0
   -2.8686   -6.0560    0.0000 H   0  0  0  0  0  0  0  0  0  0  0  0
   -2.3556   -4.6465    0.0000 H   0  0  0  0  0  0  0  0  0  0  0  0
    0.2568   -5.7725    0.0000 H   0  0  0  0  0  0  0  0  0  0  0  0
   -3.0311   -3.7500    0.0000 H   0  0  0  0  0  0  0  0  0  0  0  0
   -4.5290   -0.6715    0.0000 H   0  0  0  0  0  0  0  0  0  0  0  0
   -3.5441   -2.1595    0.0000 H   0  0  0  0  0  0  0  0  0  0  0  0
   -4.5165    0.5413    0.0000 H   0  0  0  0  0  0  0  0  0  0  0  0
   -5.0801    1.2990    0.0000 H   0  0  0  0  0  0  0  0  0  0  0  0
   -5.2811    4.6471    0.0000 H   0  0  0  0  0  0  0  0  0  0  0  0
   -5.8301    2.5981    0.0000 H   0  0  0  0  0  0  0  0  0  0  0  0
   -1.9330    4.8481    0.0000 H   0  0  0  0  0  0  0  0  0  0  0  0
   -3.9821    5.3971    0.0000 H   0  0  0  0  0  0  0  0  0  0  0  0
   -1.1830    3.5490    0.0000 H   0  0  0  0  0  0  0  0  0  0  0  0
   -0.6714    2.5607    0.0000 H   0  0  0  0  0  0  0  0  0  0  0  0
    0.3170    2.0490    0.0000 H   0  0  0  0  0  0  0  0  0  0  0  0
    2.3660    0.0000    0.0000 H   0  0  0  0  0  0  0  0  0  0  0  0
    0.1823   -1.3871    0.0000 H   0  0  0  0  0  0  0  0  0  0  0  0
    1.2088   -5.3504    0.0000 H   0  0  0  0  0  0  0  0  0  0  0  0
    2.5214   -3.7500    0.0000 H   0  0  0  0  0  0  0  0  0  0  0  0
    1.8302   -1.8509    0.0000 H   0  0  0  0  0  0  0  0  0  0  0  0
    0.1818   -1.8844    0.0000 H   0  0  0  0  0  0  0  0  0  0  0  0
  1  2  1  0
  2  3  1  0
  3  4  1  0
  4  5  1  0
  5  6  2  3
  6  7  1  0
  7  8  1  0
  8  9  1  0
  9 10  1  0
 10 11  1  0
 11 12  1  0
 12 13  1  0
 13 14  1  0
 14 15  1  0
 15 16  1  0
  4 17  1  0
 17 18  1  0
 18  4  1  0
 16  6  1  0
 13  8  1  0
 16 14  1  0
 12  9  1  0
  1 19  1  0
  2 20  1  0
  2 21  1  0
  3 22  1  0
  3 23  1  0
  5 24  1  0
  7 25  1  0
  7 26  1  0
  8 27  1  6
  9 28  1  6
 10 29  1  0
 10 30  1  0
 11 31  1  0
 11 32  1  0
 12 33  1  6
 13 34  1  6
 14 35  1  6
 15 36  1  0
 16 37  1  6
 17 38  1  0
 17 39  1  0
 18 40  1  0
 18 41  1  0
M  END
$$$$
