
     RDKit          2D

 71 76  0  0  0  0  0  0  0  0999 V2000
   -0.4364   -6.3525    0.0000 C   0  0  0  0  0  0  0  0  0  0  0  0
   -0.5932   -4.8607    0.0000 C   0  0  0  0  0  0  0  0  0  0  0  0
   -0.7500   -3.3689    0.0000 C   0  0  0  0  0  0  0  0  0  0  0  0
    0.7500   -3.3689    0.0000 C   0  0  0  0  0  0  0  0  0  0  0  0
    1.2135   -1.9423    0.0000 C   0  0  0  0  0  0  0  0  0  0  0  0
   -0.0000   -1.0607    0.0000 C   0  0  0  0  0  0  0  0  0  0  0  0
    1.0607    0.0000    0.0000 C   0  0  0  0  0  0  0  0  0  0  0  0
    0.0000    1.0607    0.0000 C   0  0  0  0  0  0  0  0  0  0  0  0
   -1.0607    2.1213    0.0000 O   0  0  0  0  0  0  0  0  0  0  0  0
   -0.6724    3.5702    0.0000 C   0  0  0  0  0  0  0  0  0  0  0  0
   -0.2842    5.0191    0.0000 C   0  0  0  0  0  0  0  0  0  0  0  0
    0.1040    6.4680    0.0000 C   0  0  0  0  0  0  0  0  0  0  0  0
    0.4923    7.9169    0.0000 C   0  0  0  0  0  0  0  0  0  0  0  0
   -1.0452    7.5798    0.0000 C   0  0  0  0  0  0  0  0  0  0  0  0
   -1.0452    6.0798    0.0000 C   0  0  0  0  0  0  0  0  0  0  0  0
    0.2539    5.3298    0.0000 C   0  0  0  0  0  0  0  0  0  0  0  0
    1.5529    6.0798    0.0000 C   0  0  0  0  0  0  0  0  0  0  0  0
    1.9411    7.5286    0.0000 C   0  0  0  0  0  0  0  0  0  0  0  0
   -1.0607    0.0000    0.0000 C   0  0  0  0  0  0  0  0  0  0  0  0
   -2.1213    1.0607    0.0000 C   0  0  0  0  0  0  0  0  0  0  0  0
   -3.1820    2.1213    0.0000 C   0  0  0  0  0  0  0  0  0  0  0  0
   -2.7938    3.5702    0.0000 C   0  0  0  0  0  0  0  0  0  0  0  0
   -4.6674    1.9126    0.0000 O   0  0  0  0  0  0  0  0  0  0  0  0
   -3.1820    0.0000    0.0000 C   0  0  0  0  0  0  0  0  0  0  0  0
   -2.1213   -1.0607    0.0000 C   0  0  0  0  0  0  0  0  0  0  0  0
   -1.0607   -2.1213    0.0000 C   0  0  0  0  0  0  0  0  0  0  0  0
   -0.4267   -3.4808    0.0000 C   0  0  0  0  0  0  0  0  0  0  0  0
   -1.9210   -3.3500    0.0000 C   0  0  0  0  0  0  0  0  0  0  0  0
   -1.2135   -1.9423    0.0000 C   0  0  0  0  0  0  0  0  0  0  0  0
   -0.2796   -7.8443    0.0000 H   0  0  0  0  0  0  0  0  0  0  0  0
   -1.9282   -6.5093    0.0000 H   0  0  0  0  0  0  0  0  0  0  0  0
    1.0554   -6.1957    0.0000 H   0  0  0  0  0  0  0  0  0  0  0  0
    0.9066   -4.8869    0.0000 H   0  0  0  0  0  0  0  0  0  0  0  0
   -2.0548   -5.1982    0.0000 H   0  0  0  0  0  0  0  0  0  0  0  0
   -2.0982   -4.0266    0.0000 H   0  0  0  0  0  0  0  0  0  0  0  0
    2.2172   -3.6808    0.0000 H   0  0  0  0  0  0  0  0  0  0  0  0
    0.9588   -4.8543    0.0000 H   0  0  0  0  0  0  0  0  0  0  0  0
    2.1163   -0.7444    0.0000 H   0  0  0  0  0  0  0  0  0  0  0  0
    2.5838   -2.5524    0.0000 H   0  0  0  0  0  0  0  0  0  0  0  0
    2.1213    1.0607    0.0000 H   0  0  0  0  0  0  0  0  0  0  0  0
    2.2427   -0.9235    0.0000 H   0  0  0  0  0  0  0  0  0  0  0  0
    1.0607    2.1213    0.0000 H   0  0  0  0  0  0  0  0  0  0  0  0
    0.7765    3.1820    0.0000 H   0  0  0  0  0  0  0  0  0  0  0  0
   -2.0632    4.1322    0.0000 H   0  0  0  0  0  0  0  0  0  0  0  0
    1.1066    4.4572    0.0000 H   0  0  0  0  0  0  0  0  0  0  0  0
   -1.7331    5.4073    0.0000 H   0  0  0  0  0  0  0  0  0  0  0  0
   -1.3957    6.4941    0.0000 H   0  0  0  0  0  0  0  0  0  0  0  0
   -0.2577    9.2159    0.0000 H   0  0  0  0  0  0  0  0  0  0  0  0
   -2.5224    7.3193    0.0000 H   0  0  0  0  0  0  0  0  0  0  0  0
   -1.5582    8.9893    0.0000 H   0  0  0  0  0  0  0  0  0  0  0  0
   -1.8840    4.8362    0.0000 H   0  0  0  0  0  0  0  0  0  0  0  0
   -2.5224    6.3402    0.0000 H   0  0  0  0  0  0  0  0  0  0  0  0
    1.3509    4.3068    0.0000 H   0  0  0  0  0  0  0  0  0  0  0  0
   -0.4036    3.9815    0.0000 H   0  0  0  0  0  0  0  0  0  0  0  0
    2.3029    4.7807    0.0000 H   0  0  0  0  0  0  0  0  0  0  0  0
    2.3294    8.9775    0.0000 H   0  0  0  0  0  0  0  0  0  0  0  0
    3.3900    7.1404    0.0000 H   0  0  0  0  0  0  0  0  0  0  0  0
   -1.3488    2.3465    0.0000 H   0  0  0  0  0  0  0  0  0  0  0  0
   -2.5850    5.0556    0.0000 H   0  0  0  0  0  0  0  0  0  0  0  0
   -4.2426    3.9584    0.0000 H   0  0  0  0  0  0  0  0  0  0  0  0
   -1.2940    3.5441    0.0000 H   0  0  0  0  0  0  0  0  0  0  0  0
   -4.2426   -1.0607    0.0000 H   0  0  0  0  0  0  0  0  0  0  0  0
   -4.3640    0.9235    0.0000 H   0  0  0  0  0  0  0  0  0  0  0  0
   -3.4071   -1.8331    0.0000 H   0  0  0  0  0  0  0  0  0  0  0  0
    0.3397   -1.5838    0.0000 H   0  0  0  0  0  0  0  0  0  0  0  0
    1.0730   -3.4547    0.0000 H   0  0  0  0  0  0  0  0  0  0  0  0
   -0.1148   -4.9480    0.0000 H   0  0  0  0  0  0  0  0  0  0  0  0
   -2.4830   -4.7408    0.0000 H   0  0  0  0  0  0  0  0  0  0  0  0
   -3.3935   -3.0639    0.0000 H   0  0  0  0  0  0  0  0  0  0  0  0
   -2.5838   -2.5524    0.0000 H   0  0  0  0  0  0  0  0  0  0  0  0
   -2.2556   -0.8634    0.0000 H   0  0  0  0  0  0  0  0  0  0  0  0
  1  2  1  0
  2  3  1  0
  3  4  1  0
  4  5  1  0
  6  5  1  6
  6  7  1  0
  7  8  1  0
  8  9  1  0
  9 10  1  0
 10 11  1  0
 11 12  1  0
 12 13  1  0
 13 14  1  0
 14 15  1  0
 15 16  1  0
 16 17  1  0
 17 18  1  0
  8 19  1  0
 19 20  1  0
 20 21  1  0
 21 22  1  0
 21 23  2  0
 20 24  1  0
 24 25  1  0
 25 26  1  0
 26 27  1  0
 27 28  1  0
  6 29  1  0
 29  3  1  0
 19  6  1  6
 28 26  1  0
 17 12  1  0
 25 19  1  0
 18 13  1  0
  1 30  1  0
  1 31  1  0
  1 32  1  0
  2 33  1  0
  2 34  1  0
  3 35  1  6
  4 36  1  0
  4 37  1  0
  5 38  1  0
  5 39  1  0
  7 40  1  0
  7 41  1  0
  8 42  1  6
 10 43  1  0
 10 44  1  0
 11 45  1  0
 11 46  1  0
 12 47  1  1
 13 48  1  6
 14 49  1  0
 14 50  1  0
 15 51  1  0
 15 52  1  0
 16 53  1  0
 16 54  1  0
 17 55  1  6
 18 56  1  0
 18 57  1  0
 20 58  1  1
 22 59  1  0
 22 60  1  0
 22 61  1  0
 24 62  1  0
 24 63  1  0
 25 64  1  1
 26 65  1  0
 27 66  1  0
 27 67  1  0
 28 68  1  0
 28 69  1  0
 29 70  1  0
 29 71  1  0
M  END
$$$$
