
     RDKit          2D

 40 42  0  0  0  0  0  0  0  0999 V2000
   -5.9674    1.0521    0.0000 C   0  0  0  0  0  0  0  0  0  0  0  0
   -4.9067   -0.0086    0.0000 C   0  0  0  0  0  0  0  0  0  0  0  0
   -3.8461   -1.0692    0.0000 N   0  0  0  0  0  0  0  0  0  0  0  0
   -2.3972   -0.6810    0.0000 C   0  0  0  0  0  0  0  0  0  0  0  0
   -2.1625   -2.1625    0.0000 C   0  0  0  0  0  0  0  0  0  0  0  0
   -0.6810   -2.3972    0.0000 O   0  0  0  0  0  0  0  0  0  0  0  0
   -0.0000   -1.0607    0.0000 C   0  0  0  0  0  0  0  0  0  0  0  0
    1.0607    0.0000    0.0000 O   0  0  0  0  0  0  0  0  0  0  0  0
    0.0000    1.0607    0.0000 C   0  0  0  0  0  0  0  0  0  0  0  0
   -1.0607    0.0000    0.0000 C   0  0  0  0  0  0  0  0  0  0  0  0
   -1.0829   -0.5526    0.0000 C   0  0  0  0  0  0  0  0  0  0  0  0
   -1.7800    1.8741    0.0000 C   0  0  0  0  0  0  0  0  0  0  0  0
   -3.1804    2.4116    0.0000 C   0  0  0  0  0  0  0  0  0  0  0  0
   -1.2425    3.2744    0.0000 C   0  0  0  0  0  0  0  0  0  0  0  0
   -0.7049    4.6748    0.0000 Br  0  0  0  0  0  0  0  0  0  0  0  0
   -0.3831   -0.3831    0.0000 C   0  0  0  0  0  0  0  0  0  0  0  0
   -0.5526   -1.0829    0.0000 C   0  0  0  0  0  0  0  0  0  0  0  0
    2.7854    0.0086    0.0000 O   0  0  0  0  0  0  0  0  0  0  0  0
   -7.0280    2.1128    0.0000 H   0  0  0  0  0  0  0  0  0  0  0  0
   -7.0280   -0.0086    0.0000 H   0  0  0  0  0  0  0  0  0  0  0  0
   -5.0439    2.2341    0.0000 H   0  0  0  0  0  0  0  0  0  0  0  0
   -3.7247    0.9149    0.0000 H   0  0  0  0  0  0  0  0  0  0  0  0
   -5.9674   -1.0692    0.0000 H   0  0  0  0  0  0  0  0  0  0  0  0
   -4.4080   -2.4600    0.0000 H   0  0  0  0  0  0  0  0  0  0  0  0
   -3.2576    0.5477    0.0000 H   0  0  0  0  0  0  0  0  0  0  0  0
   -2.2410   -3.6605    0.0000 H   0  0  0  0  0  0  0  0  0  0  0  0
   -3.6397   -2.4230    0.0000 H   0  0  0  0  0  0  0  0  0  0  0  0
   -0.7725    2.3465    0.0000 H   0  0  0  0  0  0  0  0  0  0  0  0
    0.9235    2.2427    0.0000 H   0  0  0  0  0  0  0  0  0  0  0  0
    0.1823    2.7273    0.0000 H   0  0  0  0  0  0  0  0  0  0  0  0
   -2.4843    0.5497    0.0000 H   0  0  0  0  0  0  0  0  0  0  0  0
   -4.5048    3.1159    0.0000 H   0  0  0  0  0  0  0  0  0  0  0  0
   -2.8176    3.8671    0.0000 H   0  0  0  0  0  0  0  0  0  0  0  0
   -3.7180    1.0112    0.0000 H   0  0  0  0  0  0  0  0  0  0  0  0
   -2.5669    3.9787    0.0000 H   0  0  0  0  0  0  0  0  0  0  0  0
    0.2130    2.9116    0.0000 H   0  0  0  0  0  0  0  0  0  0  0  0
    1.3624    2.5791    0.0000 H   0  0  0  0  0  0  0  0  0  0  0  0
    2.5998    1.1804    0.0000 H   0  0  0  0  0  0  0  0  0  0  0  0
    1.8741   -1.7800    0.0000 H   0  0  0  0  0  0  0  0  0  0  0  0
    3.8461   -1.0521    0.0000 H   0  0  0  0  0  0  0  0  0  0  0  0
  1  2  1  0
  2  3  1  0
  3  4  1  0
  4  5  1  0
  5  6  1  0
  6  7  1  0
  7  8  1  0
  8  9  1  0
  9 10  1  0
 10 11  1  0
 11 12  1  0
 12 13  1  0
 12 14  1  0
 14 15  1  0
 11 16  1  0
 16 17  1  0
 17 18  1  0
 10  4  1  0
 10  7  1  0
 17  7  1  0
  1 19  1  0
  1 20  1  0
  1 21  1  0
  2 22  1  0
  2 23  1  0
  3 24  1  0
  4 25  1  0
  5 26  1  0
  5 27  1  0
  9 28  1  0
  9 29  1  0
 11 30  1  0
 12 31  1  0
 13 32  1  0
 13 33  1  0
 13 34  1  0
 14 35  1  0
 14 36  1  0
 16 37  1  0
 16 38  1  0
 17 39  1  0
 18 40  1  0
M  END
$$$$
