
     RDKit          2D

 47 49  0  0  0  0  0  0  0  0999 V2000
   -8.8090    1.1533    0.0000 C   0  0  0  0  0  0  0  0  0  0  0  0
   -7.4127    0.6053    0.0000 C   0  0  0  0  0  0  0  0  0  0  0  0
   -6.0164    0.0573    0.0000 C   0  0  0  0  0  0  0  0  0  0  0  0
   -6.3136   -1.4130    0.0000 C   0  0  0  0  0  0  0  0  0  0  0  0
   -6.0901   -2.8962    0.0000 C   0  0  0  0  0  0  0  0  0  0  0  0
   -5.8665   -4.3795    0.0000 C   0  0  0  0  0  0  0  0  0  0  0  0
   -7.3497   -4.6030    0.0000 O   0  0  0  0  0  0  0  0  0  0  0  0
   -5.6429   -5.8627    0.0000 C   0  0  0  0  0  0  0  0  0  0  0  0
   -5.4194   -7.3459    0.0000 O   0  0  0  0  0  0  0  0  0  0  0  0
   -4.8917   -0.9352    0.0000 C   0  0  0  0  0  0  0  0  0  0  0  0
   -3.7190    0.0000    0.0000 C   0  0  0  0  0  0  0  0  0  0  0  0
   -3.0682    1.3515    0.0000 C   0  0  0  0  0  0  0  0  0  0  0  0
   -1.6058    1.6852    0.0000 C   0  0  0  0  0  0  0  0  0  0  0  0
   -0.4330    0.7500    0.0000 N   0  0  0  0  0  0  0  0  0  0  0  0
    0.8660    0.0000    0.0000 C   0  0  0  0  0  0  0  0  0  0  0  0
    1.8302    1.1491    0.0000 C   0  0  0  0  0  0  0  0  0  0  0  0
   -0.4330   -0.7500    0.0000 C   0  0  0  0  0  0  0  0  0  0  0  0
   -1.6058   -1.6852    0.0000 C   0  0  0  0  0  0  0  0  0  0  0  0
   -1.2720   -3.1476    0.0000 O   0  0  0  0  0  0  0  0  0  0  0  0
   -3.0682   -1.3515    0.0000 C   0  0  0  0  0  0  0  0  0  0  0  0
  -10.2053    1.7013    0.0000 H   0  0  0  0  0  0  0  0  0  0  0  0
   -8.2610    2.5496    0.0000 H   0  0  0  0  0  0  0  0  0  0  0  0
   -9.3570   -0.2430    0.0000 H   0  0  0  0  0  0  0  0  0  0  0  0
   -6.8647    2.0016    0.0000 H   0  0  0  0  0  0  0  0  0  0  0  0
   -8.0554   -0.5819    0.0000 H   0  0  0  0  0  0  0  0  0  0  0  0
   -5.6121    1.3453    0.0000 H   0  0  0  0  0  0  0  0  0  0  0  0
   -7.6572   -1.5441    0.0000 H   0  0  0  0  0  0  0  0  0  0  0  0
   -7.5733   -3.1198    0.0000 H   0  0  0  0  0  0  0  0  0  0  0  0
   -4.8755   -2.8629    0.0000 H   0  0  0  0  0  0  0  0  0  0  0  0
   -4.3832   -4.1559    0.0000 H   0  0  0  0  0  0  0  0  0  0  0  0
   -8.0639   -5.9221    0.0000 H   0  0  0  0  0  0  0  0  0  0  0  0
   -4.1597   -5.6391    0.0000 H   0  0  0  0  0  0  0  0  0  0  0  0
   -7.0879   -6.2654    0.0000 H   0  0  0  0  0  0  0  0  0  0  0  0
   -6.5921   -8.2812    0.0000 H   0  0  0  0  0  0  0  0  0  0  0  0
   -4.5105   -1.6353    0.0000 H   0  0  0  0  0  0  0  0  0  0  0  0
   -4.7744    0.8417    0.0000 H   0  0  0  0  0  0  0  0  0  0  0  0
   -4.4063    2.0292    0.0000 H   0  0  0  0  0  0  0  0  0  0  0  0
   -3.2510    2.8403    0.0000 H   0  0  0  0  0  0  0  0  0  0  0  0
   -2.0870    3.1059    0.0000 H   0  0  0  0  0  0  0  0  0  0  0  0
   -0.4330    2.6205    0.0000 H   0  0  0  0  0  0  0  0  0  0  0  0
    1.8302   -1.1491    0.0000 H   0  0  0  0  0  0  0  0  0  0  0  0
    2.7944    2.2981    0.0000 H   0  0  0  0  0  0  0  0  0  0  0  0
    2.9793    0.1849    0.0000 H   0  0  0  0  0  0  0  0  0  0  0  0
    0.6811    2.1132    0.0000 H   0  0  0  0  0  0  0  0  0  0  0  0
    0.4120   -1.9894    0.0000 H   0  0  0  0  0  0  0  0  0  0  0  0
   -3.0682   -2.8515    0.0000 H   0  0  0  0  0  0  0  0  0  0  0  0
   -3.9938   -1.6858    0.0000 H   0  0  0  0  0  0  0  0  0  0  0  0
  1  2  1  0
  2  3  1  0
  3  4  1  0
  4  5  1  0
  5  6  1  0
  6  7  1  0
  6  8  1  0
  8  9  1  0
  4 10  1  0
 10 11  1  0
 11 12  1  0
 12 13  1  0
 13 14  1  0
 14 15  1  0
 15 16  1  0
 15 17  1  0
 17 18  1  0
 18 19  2  0
 18 20  1  0
 10  3  1  0
 20 11  1  0
 17 14  1  0
  1 21  1  0
  1 22  1  0
  1 23  1  0
  2 24  1  0
  2 25  1  0
  3 26  1  1
  4 27  1  6
  5 28  1  0
  5 29  1  0
  6 30  1  6
  7 31  1  0
  8 32  1  0
  8 33  1  0
  9 34  1  0
 10 35  1  6
 11 36  1  6
 12 37  1  0
 12 38  1  0
 13 39  1  0
 13 40  1  0
 15 41  1  6
 16 42  1  0
 16 43  1  0
 16 44  1  0
 17 45  1  6
 20 46  1  0
 20 47  1  0
M  END
$$$$
