
     RDKit          2D

 67 73  0  0  0  0  0  0  0  0999 V2000
  -12.5056    7.8035    0.0000 C   0  0  0  0  0  0  0  0  0  0  0  0
  -11.0960    7.2905    0.0000 C   0  0  0  0  0  0  0  0  0  0  0  0
   -9.6865    6.7775    0.0000 C   0  0  0  0  0  0  0  0  0  0  0  0
   -8.2769    6.2644    0.0000 N   0  0  0  0  0  0  0  0  0  0  0  0
   -7.1279    7.2286    0.0000 C   0  0  0  0  0  0  0  0  0  0  0  0
   -8.0920    8.3777    0.0000 C   0  0  0  0  0  0  0  0  0  0  0  0
   -9.0562    9.5268    0.0000 C   0  0  0  0  0  0  0  0  0  0  0  0
  -10.0204   10.6758    0.0000 C   0  0  0  0  0  0  0  0  0  0  0  0
   -6.1637    6.0796    0.0000 C   0  0  0  0  0  0  0  0  0  0  0  0
   -5.1995    4.9305    0.0000 C   0  0  0  0  0  0  0  0  0  0  0  0
   -6.1637    3.7814    0.0000 C   0  0  0  0  0  0  0  0  0  0  0  0
   -5.6507    2.3719    0.0000 C   0  0  0  0  0  0  0  0  0  0  0  0
   -4.6865    3.5209    0.0000 C   0  0  0  0  0  0  0  0  0  0  0  0
   -3.2093    3.2605    0.0000 C   0  0  0  0  0  0  0  0  0  0  0  0
   -1.7321    3.0000    0.0000 C   0  0  0  0  0  0  0  0  0  0  0  0
   -1.2190    4.4095    0.0000 C   0  0  0  0  0  0  0  0  0  0  0  0
   -0.7060    5.8191    0.0000 O   0  0  0  0  0  0  0  0  0  0  0  0
   -1.7321    1.5000    0.0000 C   0  0  0  0  0  0  0  0  0  0  0  0
   -0.4330    2.2500    0.0000 C   0  0  0  0  0  0  0  0  0  0  0  0
   -0.4330    0.7500    0.0000 C   0  0  0  0  0  0  0  0  0  0  0  0
    0.8660    0.0000    0.0000 C   0  0  0  0  0  0  0  0  0  0  0  0
   -0.4330   -0.7500    0.0000 C   0  0  0  0  0  0  0  0  0  0  0  0
   -1.9102   -1.0105    0.0000 O   0  0  0  0  0  0  0  0  0  0  0  0
    0.0800   -2.1595    0.0000 C   0  0  0  0  0  0  0  0  0  0  0  0
   -1.3295   -2.6726    0.0000 C   0  0  0  0  0  0  0  0  0  0  0  0
   -0.8165   -4.0821    0.0000 C   0  0  0  0  0  0  0  0  0  0  0  0
    0.3326   -5.0463    0.0000 C   0  0  0  0  0  0  0  0  0  0  0  0
    0.5930   -3.5691    0.0000 C   0  0  0  0  0  0  0  0  0  0  0  0
  -13.9151    8.3166    0.0000 H   0  0  0  0  0  0  0  0  0  0  0  0
  -13.0186    6.3940    0.0000 H   0  0  0  0  0  0  0  0  0  0  0  0
  -11.9925    9.2131    0.0000 H   0  0  0  0  0  0  0  0  0  0  0  0
  -10.7586    8.7521    0.0000 H   0  0  0  0  0  0  0  0  0  0  0  0
  -11.6090    5.8810    0.0000 H   0  0  0  0  0  0  0  0  0  0  0  0
   -9.5072    7.5542    0.0000 H   0  0  0  0  0  0  0  0  0  0  0  0
  -10.1995    5.3679    0.0000 H   0  0  0  0  0  0  0  0  0  0  0  0
   -8.3816    4.7681    0.0000 H   0  0  0  0  0  0  0  0  0  0  0  0
   -5.9788    8.1928    0.0000 H   0  0  0  0  0  0  0  0  0  0  0  0
   -6.9430    9.3419    0.0000 H   0  0  0  0  0  0  0  0  0  0  0  0
   -8.8458    8.1182    0.0000 H   0  0  0  0  0  0  0  0  0  0  0  0
  -10.3143    8.7098    0.0000 H   0  0  0  0  0  0  0  0  0  0  0  0
   -7.9072   10.4909    0.0000 H   0  0  0  0  0  0  0  0  0  0  0  0
  -10.9846   11.8249    0.0000 H   0  0  0  0  0  0  0  0  0  0  0  0
   -8.8713   11.6400    0.0000 H   0  0  0  0  0  0  0  0  0  0  0  0
  -11.1695    9.7116    0.0000 H   0  0  0  0  0  0  0  0  0  0  0  0
   -7.1867    4.9825    0.0000 H   0  0  0  0  0  0  0  0  0  0  0  0
   -5.0146    7.0437    0.0000 H   0  0  0  0  0  0  0  0  0  0  0  0
   -3.9005    5.6805    0.0000 H   0  0  0  0  0  0  0  0  0  0  0  0
   -7.6616    3.8599    0.0000 H   0  0  0  0  0  0  0  0  0  0  0  0
   -6.9497    1.6219    0.0000 H   0  0  0  0  0  0  0  0  0  0  0  0
   -4.6865    1.2228    0.0000 H   0  0  0  0  0  0  0  0  0  0  0  0
   -3.4697    1.7833    0.0000 H   0  0  0  0  0  0  0  0  0  0  0  0
   -3.1308    4.7584    0.0000 H   0  0  0  0  0  0  0  0  0  0  0  0
    0.1905    3.8965    0.0000 H   0  0  0  0  0  0  0  0  0  0  0  0
   -2.5555    5.0906    0.0000 H   0  0  0  0  0  0  0  0  0  0  0  0
   -1.6702    6.9681    0.0000 H   0  0  0  0  0  0  0  0  0  0  0  0
   -3.1128    0.9139    0.0000 H   0  0  0  0  0  0  0  0  0  0  0  0
    0.8660    3.0000    0.0000 H   0  0  0  0  0  0  0  0  0  0  0  0
    1.8302    1.1491    0.0000 H   0  0  0  0  0  0  0  0  0  0  0  0
    1.9631   -1.0230    0.0000 H   0  0  0  0  0  0  0  0  0  0  0  0
   -3.0073    0.0125    0.0000 H   0  0  0  0  0  0  0  0  0  0  0  0
    1.5416   -1.8222    0.0000 H   0  0  0  0  0  0  0  0  0  0  0  0
   -2.7391   -3.1856    0.0000 H   0  0  0  0  0  0  0  0  0  0  0  0
   -2.1684   -1.4291    0.0000 H   0  0  0  0  0  0  0  0  0  0  0  0
   -2.0452   -4.9425    0.0000 H   0  0  0  0  0  0  0  0  0  0  0  0
   -0.4174   -6.3453    0.0000 H   0  0  0  0  0  0  0  0  0  0  0  0
    1.7421   -5.5593    0.0000 H   0  0  0  0  0  0  0  0  0  0  0  0
    2.0873   -3.4383    0.0000 H   0  0  0  0  0  0  0  0  0  0  0  0
  1  2  1  0
  2  3  1  0
  3  4  1  0
  4  5  1  0
  5  6  1  0
  6  7  1  0
  7  8  1  0
  5  9  1  0
  9 10  1  0
 10 11  1  0
 11 12  1  0
 12 13  1  0
 13 14  1  0
 14 15  1  0
 15 16  1  0
 16 17  1  0
 15 18  1  0
 18 19  1  0
 19 20  1  0
 20 21  1  0
 21 22  1  0
 22 23  1  0
 22 24  1  0
 24 25  1  0
 25 26  1  0
 26 27  1  0
 27 28  1  0
 13 10  1  0
 19 15  1  0
 22 20  1  0
 28 24  1  0
 13 11  1  0
 20 18  1  0
 28 26  1  0
  1 29  1  0
  1 30  1  0
  1 31  1  0
  2 32  1  0
  2 33  1  0
  3 34  1  0
  3 35  1  0
  4 36  1  0
  5 37  1  0
  6 38  1  0
  6 39  1  0
  7 40  1  0
  7 41  1  0
  8 42  1  0
  8 43  1  0
  8 44  1  0
  9 45  1  0
  9 46  1  0
 10 47  1  0
 11 48  1  0
 12 49  1  0
 12 50  1  0
 14 51  1  0
 14 52  1  0
 16 53  1  0
 16 54  1  0
 17 55  1  0
 18 56  1  0
 19 57  1  0
 21 58  1  0
 21 59  1  0
 23 60  1  0
 24 61  1  0
 25 62  1  0
 25 63  1  0
 26 64  1  0
 27 65  1  0
 27 66  1  0
 28 67  1  0
M  END
$$$$
