
     RDKit          2D

 79 81  0  0  0  0  0  0  0  0999 V2000
    3.5702   -1.4489    0.0000 C   0  0  0  0  0  0  0  0  0  0  0  0
    2.1213   -1.0607    0.0000 C   0  0  0  0  0  0  0  0  0  0  0  0
    1.0607   -2.1213    0.0000 C   0  0  0  0  0  0  0  0  0  0  0  0
    0.0000   -3.1820    0.0000 C   0  0  0  0  0  0  0  0  0  0  0  0
   -1.0607   -4.2426    0.0000 C   0  0  0  0  0  0  0  0  0  0  0  0
    1.0607   -4.2426    0.0000 C   0  0  0  0  0  0  0  0  0  0  0  0
    2.1213   -5.3033    0.0000 C   0  0  0  0  0  0  0  0  0  0  0  0
    2.7552   -6.6628    0.0000 O   0  0  0  0  0  0  0  0  0  0  0  0
    1.2610   -6.5320    0.0000 C   0  0  0  0  0  0  0  0  0  0  0  0
    0.8727   -7.9809    0.0000 O   0  0  0  0  0  0  0  0  0  0  0  0
   -0.0985   -5.8981    0.0000 P   0  0  0  0  0  0  0  0  0  0  0  0
   -1.3272   -6.7585    0.0000 C   0  0  0  0  0  0  0  0  0  0  0  0
   -2.5560   -7.6188    0.0000 C   0  0  0  0  0  0  0  0  0  0  0  0
   -3.7847   -8.4792    0.0000 C   0  0  0  0  0  0  0  0  0  0  0  0
   -5.0134   -9.3396    0.0000 C   0  0  0  0  0  0  0  0  0  0  0  0
   -6.2421  -10.1999    0.0000 C   0  0  0  0  0  0  0  0  0  0  0  0
   -2.9243   -9.7079    0.0000 C   0  0  0  0  0  0  0  0  0  0  0  0
   -2.0640  -10.9367    0.0000 O   0  0  0  0  0  0  0  0  0  0  0  0
   -0.0000   -1.0607    0.0000 C   0  0  0  0  0  0  0  0  0  0  0  0
   -1.0607   -2.1213    0.0000 O   0  0  0  0  0  0  0  0  0  0  0  0
   -2.1213   -1.0607    0.0000 C   0  0  0  0  0  0  0  0  0  0  0  0
   -3.1820    0.0000    0.0000 N   0  0  0  0  0  0  0  0  0  0  0  0
   -4.6309   -0.3882    0.0000 C   0  0  0  0  0  0  0  0  0  0  0  0
   -1.0607    0.0000    0.0000 C   0  0  0  0  0  0  0  0  0  0  0  0
    0.0000    1.0607    0.0000 C   0  0  0  0  0  0  0  0  0  0  0  0
    1.0607    2.1213    0.0000 C   0  0  0  0  0  0  0  0  0  0  0  0
    2.1213    3.1820    0.0000 C   0  0  0  0  0  0  0  0  0  0  0  0
    1.0607    4.2426    0.0000 C   0  0  0  0  0  0  0  0  0  0  0  0
    2.1213    5.3033    0.0000 C   0  0  0  0  0  0  0  0  0  0  0  0
    3.1820    4.2426    0.0000 C   0  0  0  0  0  0  0  0  0  0  0  0
    4.2426    3.1820    0.0000 C   0  0  0  0  0  0  0  0  0  0  0  0
    5.3033    2.1213    0.0000 O   0  0  0  0  0  0  0  0  0  0  0  0
    6.7522    2.5095    0.0000 C   0  0  0  0  0  0  0  0  0  0  0  0
    4.6309   -0.3882    0.0000 H   0  0  0  0  0  0  0  0  0  0  0  0
    3.9584   -2.8978    0.0000 H   0  0  0  0  0  0  0  0  0  0  0  0
    2.2782    0.4311    0.0000 H   0  0  0  0  0  0  0  0  0  0  0  0
    2.2427   -3.0448    0.0000 H   0  0  0  0  0  0  0  0  0  0  0  0
    0.6833   -3.5925    0.0000 H   0  0  0  0  0  0  0  0  0  0  0  0
   -2.2427   -5.1661    0.0000 H   0  0  0  0  0  0  0  0  0  0  0  0
   -0.4507   -5.6130    0.0000 H   0  0  0  0  0  0  0  0  0  0  0  0
   -2.1213   -3.1820    0.0000 H   0  0  0  0  0  0  0  0  0  0  0  0
   -0.1214   -5.1661    0.0000 H   0  0  0  0  0  0  0  0  0  0  0  0
    2.2427   -3.3192    0.0000 H   0  0  0  0  0  0  0  0  0  0  0  0
    3.3500   -4.4429    0.0000 H   0  0  0  0  0  0  0  0  0  0  0  0
    1.9334   -9.0416    0.0000 H   0  0  0  0  0  0  0  0  0  0  0  0
   -0.2292   -4.4038    0.0000 H   0  0  0  0  0  0  0  0  0  0  0  0
   -0.4669   -7.9872    0.0000 H   0  0  0  0  0  0  0  0  0  0  0  0
   -2.3310   -5.6438    0.0000 H   0  0  0  0  0  0  0  0  0  0  0  0
   -1.5522   -8.7335    0.0000 H   0  0  0  0  0  0  0  0  0  0  0  0
   -3.4163   -6.3901    0.0000 H   0  0  0  0  0  0  0  0  0  0  0  0
   -4.6451   -7.2505    0.0000 H   0  0  0  0  0  0  0  0  0  0  0  0
   -4.3092  -10.6640    0.0000 H   0  0  0  0  0  0  0  0  0  0  0  0
   -5.8738   -8.1108    0.0000 H   0  0  0  0  0  0  0  0  0  0  0  0
   -7.4709  -11.0603    0.0000 H   0  0  0  0  0  0  0  0  0  0  0  0
   -7.1025   -8.9712    0.0000 H   0  0  0  0  0  0  0  0  0  0  0  0
   -5.3818  -11.4287    0.0000 H   0  0  0  0  0  0  0  0  0  0  0  0
   -4.0390  -10.7116    0.0000 H   0  0  0  0  0  0  0  0  0  0  0  0
   -1.5999   -9.0038    0.0000 H   0  0  0  0  0  0  0  0  0  0  0  0
   -2.6979  -12.2961    0.0000 H   0  0  0  0  0  0  0  0  0  0  0  0
    1.0607   -0.0000    0.0000 H   0  0  0  0  0  0  0  0  0  0  0  0
   -3.1820   -2.1213    0.0000 H   0  0  0  0  0  0  0  0  0  0  0  0
   -5.6915    0.6724    0.0000 H   0  0  0  0  0  0  0  0  0  0  0  0
   -5.0191   -1.8371    0.0000 H   0  0  0  0  0  0  0  0  0  0  0  0
   -2.1213    1.0607    0.0000 H   0  0  0  0  0  0  0  0  0  0  0  0
   -1.0607    2.1213    0.0000 H   0  0  0  0  0  0  0  0  0  0  0  0
    1.2858    0.2882    0.0000 H   0  0  0  0  0  0  0  0  0  0  0  0
   -0.1214    3.0448    0.0000 H   0  0  0  0  0  0  0  0  0  0  0  0
    2.2427    1.1979    0.0000 H   0  0  0  0  0  0  0  0  0  0  0  0
    3.0448    1.9999    0.0000 H   0  0  0  0  0  0  0  0  0  0  0  0
   -0.0000    5.3033    0.0000 H   0  0  0  0  0  0  0  0  0  0  0  0
   -0.1214    3.3192    0.0000 H   0  0  0  0  0  0  0  0  0  0  0  0
    3.1820    6.3640    0.0000 H   0  0  0  0  0  0  0  0  0  0  0  0
    1.0607    6.3640    0.0000 H   0  0  0  0  0  0  0  0  0  0  0  0
    4.2426    5.3033    0.0000 H   0  0  0  0  0  0  0  0  0  0  0  0
    5.3033    4.2426    0.0000 H   0  0  0  0  0  0  0  0  0  0  0  0
    3.3192    1.9999    0.0000 H   0  0  0  0  0  0  0  0  0  0  0  0
    8.2011    2.8978    0.0000 H   0  0  0  0  0  0  0  0  0  0  0  0
    7.1404    1.0607    0.0000 H   0  0  0  0  0  0  0  0  0  0  0  0
    6.3640    3.9584    0.0000 H   0  0  0  0  0  0  0  0  0  0  0  0
  1  2  2  3
  2  3  1  0
  3  4  1  0
  4  5  1  0
  4  6  1  0
  6  7  1  0
  7  8  1  0
  8  9  1  0
  9 10  1  0
  9 11  1  0
 11 12  1  0
 12 13  1  0
 13 14  1  0
 14 15  1  0
 15 16  1  0
 14 17  1  0
 17 18  1  0
  3 19  1  0
 19 20  1  0
 20 21  1  0
 21 22  1  0
 22 23  2  3
 21 24  1  0
 24 25  1  0
 25 26  1  0
 26 27  1  0
 27 28  1  0
 28 29  1  0
 29 30  1  0
 30 31  1  0
 31 32  1  0
 32 33  1  0
  9  7  1  0
 24 19  1  0
 30 27  1  0
  1 34  1  0
  1 35  1  0
  2 36  1  0
  3 37  1  0
  4 38  1  0
  5 39  1  0
  5 40  1  0
  5 41  1  0
  6 42  1  0
  6 43  1  0
  7 44  1  0
 10 45  1  0
 11 46  1  0
 12 47  1  0
 12 48  1  0
 13 49  1  0
 13 50  1  0
 14 51  1  0
 15 52  1  0
 15 53  1  0
 16 54  1  0
 16 55  1  0
 16 56  1  0
 17 57  1  0
 17 58  1  0
 18 59  1  0
 19 60  1  0
 21 61  1  0
 23 62  1  0
 23 63  1  0
 24 64  1  0
 25 65  1  0
 25 66  1  0
 26 67  1  0
 26 68  1  0
 27 69  1  0
 28 70  1  0
 28 71  1  0
 29 72  1  0
 29 73  1  0
 30 74  1  0
 31 75  1  0
 31 76  1  0
 33 77  1  0
 33 78  1  0
 33 79  1  0
M  END
$$$$
