
     RDKit          2D

 24 23  0  0  0  0  0  0  0  0999 V2000
   -2.5981    1.5000    0.0000 C   0  0  0  0  0  0  0  0  0  0  0  0
   -1.2990    0.7500    0.0000 C   0  0  0  0  0  0  0  0  0  0  0  0
    0.0000    0.0000    0.0000 C   0  0  0  0  0  0  0  0  0  0  0  0
    1.2990    0.7500    0.0000 C   0  0  0  0  0  0  0  0  0  0  0  0
    2.5981   -0.0000    0.0000 C   0  0  0  0  0  0  0  0  0  0  0  0
    3.8971   -0.7500    0.0000 C   0  0  0  0  0  0  0  0  0  0  0  0
    5.1962   -1.5000    0.0000 C   0  0  0  0  0  0  0  0  0  0  0  0
    6.4952   -2.2500    0.0000 C   0  0  0  0  0  0  0  0  0  0  0  0
    6.4952   -3.7500    0.0000 O   0  0  0  0  0  0  0  0  0  0  0  0
    7.7942   -1.5000    0.0000 O   0  0  0  0  0  0  0  0  0  0  0  0
   -3.8971    2.2500    0.0000 H   0  0  0  0  0  0  0  0  0  0  0  0
   -1.8481    2.7990    0.0000 H   0  0  0  0  0  0  0  0  0  0  0  0
   -3.3481    0.2010    0.0000 H   0  0  0  0  0  0  0  0  0  0  0  0
   -2.0490   -0.5490    0.0000 H   0  0  0  0  0  0  0  0  0  0  0  0
   -0.5490    2.0490    0.0000 H   0  0  0  0  0  0  0  0  0  0  0  0
   -0.0000   -1.5000    0.0000 H   0  0  0  0  0  0  0  0  0  0  0  0
    1.2990    2.2500    0.0000 H   0  0  0  0  0  0  0  0  0  0  0  0
    3.3481    1.2990    0.0000 H   0  0  0  0  0  0  0  0  0  0  0  0
    1.8481   -1.2990    0.0000 H   0  0  0  0  0  0  0  0  0  0  0  0
    3.1471   -2.0490    0.0000 H   0  0  0  0  0  0  0  0  0  0  0  0
    4.6471    0.5490    0.0000 H   0  0  0  0  0  0  0  0  0  0  0  0
    4.4462   -2.7990    0.0000 H   0  0  0  0  0  0  0  0  0  0  0  0
    5.9462   -0.2010    0.0000 H   0  0  0  0  0  0  0  0  0  0  0  0
    9.0933   -2.2500    0.0000 H   0  0  0  0  0  0  0  0  0  0  0  0
  1  2  1  0
  2  3  1  0
  3  4  2  3
  4  5  1  0
  5  6  1  0
  6  7  1  0
  7  8  1  0
  8  9  2  0
  8 10  1  0
  1 11  1  0
  1 12  1  0
  1 13  1  0
  2 14  1  0
  2 15  1  0
  3 16  1  0
  4 17  1  0
  5 18  1  0
  5 19  1  0
  6 20  1  0
  6 21  1  0
  7 22  1  0
  7 23  1  0
 10 24  1  0
M  END
$$$$
