
     RDKit          2D

 74 76  0  0  0  0  0  0  0  0999 V2000
    8.5054  -10.0261    0.0000 C   0  0  0  0  0  0  0  0  0  0  0  0
    8.1172   -8.5772    0.0000 C   0  0  0  0  0  0  0  0  0  0  0  0
    6.6683   -8.1890    0.0000 C   0  0  0  0  0  0  0  0  0  0  0  0
    6.2801   -9.6379    0.0000 O   0  0  0  0  0  0  0  0  0  0  0  0
    5.2194   -7.8007    0.0000 C   0  0  0  0  0  0  0  0  0  0  0  0
    3.7705   -7.4125    0.0000 C   0  0  0  0  0  0  0  0  0  0  0  0
    2.3216   -7.0243    0.0000 C   0  0  0  0  0  0  0  0  0  0  0  0
    0.8727   -6.6361    0.0000 C   0  0  0  0  0  0  0  0  0  0  0  0
   -0.5762   -6.2478    0.0000 C   0  0  0  0  0  0  0  0  0  0  0  0
   -2.0251   -5.8596    0.0000 C   0  0  0  0  0  0  0  0  0  0  0  0
   -0.1879   -4.7989    0.0000 C   0  0  0  0  0  0  0  0  0  0  0  0
    0.2003   -3.3500    0.0000 C   0  0  0  0  0  0  0  0  0  0  0  0
    1.6946   -3.4808    0.0000 C   0  0  0  0  0  0  0  0  0  0  0  0
    1.0607   -2.1213    0.0000 C   0  0  0  0  0  0  0  0  0  0  0  0
   -0.0000   -1.0607    0.0000 C   0  0  0  0  0  0  0  0  0  0  0  0
    1.0607    0.0000    0.0000 C   0  0  0  0  0  0  0  0  0  0  0  0
    0.0000    1.0607    0.0000 C   0  0  0  0  0  0  0  0  0  0  0  0
   -1.0607    2.1213    0.0000 C   0  0  0  0  0  0  0  0  0  0  0  0
   -2.2894    1.2610    0.0000 C   0  0  0  0  0  0  0  0  0  0  0  0
   -3.5181    0.4006    0.0000 C   0  0  0  0  0  0  0  0  0  0  0  0
   -4.7468   -0.4598    0.0000 C   0  0  0  0  0  0  0  0  0  0  0  0
   -4.6161   -1.9541    0.0000 C   0  0  0  0  0  0  0  0  0  0  0  0
   -6.1063    0.1742    0.0000 C   0  0  0  0  0  0  0  0  0  0  0  0
   -7.4658    0.8081    0.0000 C   0  0  0  0  0  0  0  0  0  0  0  0
   -8.8252    1.4420    0.0000 C   0  0  0  0  0  0  0  0  0  0  0  0
   -1.6946    3.4808    0.0000 C   0  0  0  0  0  0  0  0  0  0  0  0
   -0.2003    3.3500    0.0000 C   0  0  0  0  0  0  0  0  0  0  0  0
   -1.0607    0.0000    0.0000 C   0  0  0  0  0  0  0  0  0  0  0  0
   -2.5607    0.0000    0.0000 N   0  0  0  0  0  0  0  0  0  0  0  0
    9.9543  -10.4143    0.0000 H   0  0  0  0  0  0  0  0  0  0  0  0
    7.4447  -11.0867    0.0000 H   0  0  0  0  0  0  0  0  0  0  0  0
    9.1778   -7.5165    0.0000 H   0  0  0  0  0  0  0  0  0  0  0  0
    7.0565   -6.7401    0.0000 H   0  0  0  0  0  0  0  0  0  0  0  0
    4.8893  -10.1998    0.0000 H   0  0  0  0  0  0  0  0  0  0  0  0
    5.6076   -6.3519    0.0000 H   0  0  0  0  0  0  0  0  0  0  0  0
    4.6574   -9.1915    0.0000 H   0  0  0  0  0  0  0  0  0  0  0  0
    3.3823   -8.8614    0.0000 H   0  0  0  0  0  0  0  0  0  0  0  0
    4.1587   -5.9636    0.0000 H   0  0  0  0  0  0  0  0  0  0  0  0
    2.6710   -5.7203    0.0000 H   0  0  0  0  0  0  0  0  0  0  0  0
    1.9334   -8.4732    0.0000 H   0  0  0  0  0  0  0  0  0  0  0  0
    1.3499   -5.7753    0.0000 H   0  0  0  0  0  0  0  0  0  0  0  0
    0.4845   -8.0849    0.0000 H   0  0  0  0  0  0  0  0  0  0  0  0
   -0.9644   -7.6967    0.0000 H   0  0  0  0  0  0  0  0  0  0  0  0
   -3.4739   -5.4714    0.0000 H   0  0  0  0  0  0  0  0  0  0  0  0
   -2.4133   -7.3085    0.0000 H   0  0  0  0  0  0  0  0  0  0  0  0
   -1.9018   -4.9825    0.0000 H   0  0  0  0  0  0  0  0  0  0  0  0
    0.7627   -5.0537    0.0000 H   0  0  0  0  0  0  0  0  0  0  0  0
   -1.0092   -4.4671    0.0000 H   0  0  0  0  0  0  0  0  0  0  0  0
   -1.0836   -2.9329    0.0000 H   0  0  0  0  0  0  0  0  0  0  0  0
    3.1435   -3.0926    0.0000 H   0  0  0  0  0  0  0  0  0  0  0  0
    2.1342   -4.7572    0.0000 H   0  0  0  0  0  0  0  0  0  0  0  0
    2.0262   -1.6080    0.0000 H   0  0  0  0  0  0  0  0  0  0  0  0
   -1.0638   -1.8918    0.0000 H   0  0  0  0  0  0  0  0  0  0  0  0
    2.1213    1.0607    0.0000 H   0  0  0  0  0  0  0  0  0  0  0  0
    1.9224   -0.6732    0.0000 H   0  0  0  0  0  0  0  0  0  0  0  0
    1.1820    1.9841    0.0000 H   0  0  0  0  0  0  0  0  0  0  0  0
   -3.2931    2.3756    0.0000 H   0  0  0  0  0  0  0  0  0  0  0  0
   -1.8057    0.0006    0.0000 H   0  0  0  0  0  0  0  0  0  0  0  0
   -2.9806   -0.9998    0.0000 H   0  0  0  0  0  0  0  0  0  0  0  0
   -4.3785    1.6293    0.0000 H   0  0  0  0  0  0  0  0  0  0  0  0
   -5.8448   -2.8144    0.0000 H   0  0  0  0  0  0  0  0  0  0  0  0
   -3.2566   -2.5880    0.0000 H   0  0  0  0  0  0  0  0  0  0  0  0
   -6.7402   -1.1853    0.0000 H   0  0  0  0  0  0  0  0  0  0  0  0
   -5.4724    1.5336    0.0000 H   0  0  0  0  0  0  0  0  0  0  0  0
   -6.8318    2.1675    0.0000 H   0  0  0  0  0  0  0  0  0  0  0  0
   -8.0997   -0.5514    0.0000 H   0  0  0  0  0  0  0  0  0  0  0  0
  -10.1847    2.0759    0.0000 H   0  0  0  0  0  0  0  0  0  0  0  0
   -9.4592    0.0825    0.0000 H   0  0  0  0  0  0  0  0  0  0  0  0
   -8.1913    2.8015    0.0000 H   0  0  0  0  0  0  0  0  0  0  0  0
   -3.1800    3.2721    0.0000 H   0  0  0  0  0  0  0  0  0  0  0  0
   -1.8253    4.9751    0.0000 H   0  0  0  0  0  0  0  0  0  0  0  0
    0.1879    4.7989    0.0000 H   0  0  0  0  0  0  0  0  0  0  0  0
    1.2263    2.8866    0.0000 H   0  0  0  0  0  0  0  0  0  0  0  0
   -3.3107    1.2990    0.0000 H   0  0  0  0  0  0  0  0  0  0  0  0
  1  2  2  3
  2  3  1  0
  3  4  1  0
  3  5  1  0
  5  6  1  0
  6  7  1  0
  7  8  1  0
  8  9  1  0
  9 10  1  0
  9 11  1  0
 11 12  1  0
 12 13  1  0
 13 14  1  0
 14 15  1  0
 15 16  1  0
 16 17  1  0
 17 18  1  0
 18 19  1  0
 19 20  1  0
 20 21  1  0
 21 22  2  3
 21 23  1  0
 23 24  1  0
 24 25  1  0
 18 26  1  0
 26 27  1  0
 17 28  1  0
 28 29  2  3
 14 12  1  0
 28 15  1  0
 27 18  1  0
  1 30  1  0
  1 31  1  0
  2 32  1  0
  3 33  1  0
  4 34  1  0
  5 35  1  0
  5 36  1  0
  6 37  1  0
  6 38  1  0
  7 39  1  0
  7 40  1  0
  8 41  1  0
  8 42  1  0
  9 43  1  0
 10 44  1  0
 10 45  1  0
 10 46  1  0
 11 47  1  0
 11 48  1  0
 12 49  1  0
 13 50  1  0
 13 51  1  0
 14 52  1  0
 15 53  1  0
 16 54  1  0
 16 55  1  0
 17 56  1  0
 19 57  1  0
 19 58  1  0
 20 59  1  0
 20 60  1  0
 22 61  1  0
 22 62  1  0
 23 63  1  0
 23 64  1  0
 24 65  1  0
 24 66  1  0
 25 67  1  0
 25 68  1  0
 25 69  1  0
 26 70  1  0
 26 71  1  0
 27 72  1  0
 27 73  1  0
 29 74  1  0
M  END
$$$$
