
     RDKit          2D

103110  0  0  0  0  0  0  0  0999 V2000
    9.6755    4.0632    0.0000 C   0  0  0  0  0  0  0  0  0  0  0  0
    9.0416    2.7037    0.0000 C   0  0  0  0  0  0  0  0  0  0  0  0
    7.5473    2.5730    0.0000 C   0  0  0  0  0  0  0  0  0  0  0  0
    6.6870    3.8017    0.0000 C   0  0  0  0  0  0  0  0  0  0  0  0
    5.8266    5.0304    0.0000 C   0  0  0  0  0  0  0  0  0  0  0  0
    4.9662    6.2592    0.0000 C   0  0  0  0  0  0  0  0  0  0  0  0
    4.1059    7.4879    0.0000 C   0  0  0  0  0  0  0  0  0  0  0  0
    5.3346    8.3483    0.0000 O   0  0  0  0  0  0  0  0  0  0  0  0
    3.2455    8.7166    0.0000 C   0  0  0  0  0  0  0  0  0  0  0  0
    2.3851    9.9454    0.0000 C   0  0  0  0  0  0  0  0  0  0  0  0
    1.5248   11.1741    0.0000 S   0  0  0  0  0  5  0  0  0  0  0  0
    0.6644   12.4028    0.0000 C   0  0  0  0  0  0  0  0  0  0  0  0
    0.2960   10.3137    0.0000 O   0  0  0  0  0  0  0  0  0  0  0  0
    6.9134    1.2135    0.0000 C   0  0  0  0  0  0  0  0  0  0  0  0
    7.3016   -0.2354    0.0000 C   0  0  0  0  0  0  0  0  0  0  0  0
    6.9134   -1.6843    0.0000 C   0  0  0  0  0  0  0  0  0  0  0  0
    5.8527   -2.7449    0.0000 C   0  0  0  0  0  0  0  0  0  0  0  0
    4.4038   -3.1331    0.0000 C   0  0  0  0  0  0  0  0  0  0  0  0
    5.1538   -4.4322    0.0000 C   0  0  0  0  0  0  0  0  0  0  0  0
    4.7656   -5.8811    0.0000 C   0  0  0  0  0  0  0  0  0  0  0  0
    4.7656   -7.3811    0.0000 C   0  0  0  0  0  0  0  0  0  0  0  0
    3.4666   -6.6311    0.0000 C   0  0  0  0  0  0  0  0  0  0  0  0
    2.0177   -6.2428    0.0000 C   0  0  0  0  0  0  0  0  0  0  0  0
    0.5177   -6.2428    0.0000 C   0  0  0  0  0  0  0  0  0  0  0  0
   -0.2323   -4.9438    0.0000 C   0  0  0  0  0  0  0  0  0  0  0  0
   -0.6205   -3.4949    0.0000 C   0  0  0  0  0  0  0  0  0  0  0  0
   -2.0694   -3.8831    0.0000 C   0  0  0  0  0  0  0  0  0  0  0  0
   -1.6812   -5.3320    0.0000 C   0  0  0  0  0  0  0  0  0  0  0  0
    1.2677   -4.9438    0.0000 C   0  0  0  0  0  0  0  0  0  0  0  0
    1.6559   -3.4949    0.0000 C   0  0  0  0  0  0  0  0  0  0  0  0
    2.9550   -2.7449    0.0000 C   0  0  0  0  0  0  0  0  0  0  0  0
    1.8943   -1.3846    0.0000 C   0  0  0  0  0  0  0  0  0  0  0  0
    2.6443   -0.0855    0.0000 O   0  0  0  0  0  0  0  0  0  0  0  0
    1.8943    1.2135    0.0000 C   0  0  0  0  0  0  0  0  0  0  0  0
    2.9550    2.2742    0.0000 C   0  0  0  0  0  0  0  0  0  0  0  0
    4.4038    2.6624    0.0000 C   0  0  0  0  0  0  0  0  0  0  0  0
    3.5435    3.8911    0.0000 C   0  0  0  0  0  0  0  0  0  0  0  0
    5.8527    2.2742    0.0000 C   0  0  0  0  0  0  0  0  0  0  0  0
    5.7220    3.7685    0.0000 O   0  0  0  0  0  0  0  0  0  0  0  0
    0.3943    1.2135    0.0000 C   0  0  0  0  0  0  0  0  0  0  0  0
    0.6805    2.6860    0.0000 F   0  0  0  0  0  0  0  0  0  0  0  0
    1.2760    0.0000    0.0000 C   0  0  0  0  0  0  0  0  0  0  0  0
    0.3943   -1.2135    0.0000 C   0  0  0  0  0  0  0  0  0  0  0  0
   -1.0323   -0.7500    0.0000 O   0  0  0  0  0  0  0  0  0  0  0  0
   -1.0323    0.7500    0.0000 O   0  0  0  0  0  0  0  0  0  0  0  0
   10.3095    5.4226    0.0000 H   0  0  0  0  0  0  0  0  0  0  0  0
   11.0350    3.4293    0.0000 H   0  0  0  0  0  0  0  0  0  0  0  0
    8.6452    4.7071    0.0000 H   0  0  0  0  0  0  0  0  0  0  0  0
    9.9020    1.4750    0.0000 H   0  0  0  0  0  0  0  0  0  0  0  0
    7.5899    4.6147    0.0000 H   0  0  0  0  0  0  0  0  0  0  0  0
    5.8957    3.7047    0.0000 H   0  0  0  0  0  0  0  0  0  0  0  0
    7.0553    5.8908    0.0000 H   0  0  0  0  0  0  0  0  0  0  0  0
    4.4262    4.4930    0.0000 H   0  0  0  0  0  0  0  0  0  0  0  0
    6.1950    7.1195    0.0000 H   0  0  0  0  0  0  0  0  0  0  0  0
    3.7375    5.3988    0.0000 H   0  0  0  0  0  0  0  0  0  0  0  0
    2.8771    6.6275    0.0000 H   0  0  0  0  0  0  0  0  0  0  0  0
    5.3870    9.8473    0.0000 H   0  0  0  0  0  0  0  0  0  0  0  0
    2.0168    7.8563    0.0000 H   0  0  0  0  0  0  0  0  0  0  0  0
    4.3602    9.7204    0.0000 H   0  0  0  0  0  0  0  0  0  0  0  0
    3.6139   10.8057    0.0000 H   0  0  0  0  0  0  0  0  0  0  0  0
    1.1564    9.0850    0.0000 H   0  0  0  0  0  0  0  0  0  0  0  0
    2.7535   12.0344    0.0000 H   0  0  0  0  0  0  0  0  0  0  0  0
   -0.1960   13.6315    0.0000 H   0  0  0  0  0  0  0  0  0  0  0  0
    1.8931   13.2632    0.0000 H   0  0  0  0  0  0  0  0  0  0  0  0
   -0.5643   11.5424    0.0000 H   0  0  0  0  0  0  0  0  0  0  0  0
    8.4125    1.2659    0.0000 H   0  0  0  0  0  0  0  0  0  0  0  0
    8.6261    0.4688    0.0000 H   0  0  0  0  0  0  0  0  0  0  0  0
    8.6261   -0.9395    0.0000 H   0  0  0  0  0  0  0  0  0  0  0  0
    8.4125   -1.7366    0.0000 H   0  0  0  0  0  0  0  0  0  0  0  0
    7.7083   -2.9563    0.0000 H   0  0  0  0  0  0  0  0  0  0  0  0
    7.1248   -3.5398    0.0000 H   0  0  0  0  0  0  0  0  0  0  0  0
    6.2663   -4.1868    0.0000 H   0  0  0  0  0  0  0  0  0  0  0  0
    5.7897   -3.7072    0.0000 H   0  0  0  0  0  0  0  0  0  0  0  0
    6.4529   -5.1822    0.0000 H   0  0  0  0  0  0  0  0  0  0  0  0
    6.5242   -3.8222    0.0000 H   0  0  0  0  0  0  0  0  0  0  0  0
    6.2528   -6.0769    0.0000 H   0  0  0  0  0  0  0  0  0  0  0  0
    6.2428   -7.6415    0.0000 H   0  0  0  0  0  0  0  0  0  0  0  0
    4.2526   -8.7906    0.0000 H   0  0  0  0  0  0  0  0  0  0  0  0
    2.8926   -8.0169    0.0000 H   0  0  0  0  0  0  0  0  0  0  0  0
    1.8219   -7.7300    0.0000 H   0  0  0  0  0  0  0  0  0  0  0  0
   -0.2323   -7.5419    0.0000 H   0  0  0  0  0  0  0  0  0  0  0  0
   -1.0088   -2.0460    0.0000 H   0  0  0  0  0  0  0  0  0  0  0  0
    0.7702   -2.9330    0.0000 H   0  0  0  0  0  0  0  0  0  0  0  0
   -3.5183   -4.2714    0.0000 H   0  0  0  0  0  0  0  0  0  0  0  0
   -2.4577   -2.4343    0.0000 H   0  0  0  0  0  0  0  0  0  0  0  0
   -1.2930   -6.7809    0.0000 H   0  0  0  0  0  0  0  0  0  0  0  0
   -3.1301   -5.7203    0.0000 H   0  0  0  0  0  0  0  0  0  0  0  0
    0.9286   -2.1830    0.0000 H   0  0  0  0  0  0  0  0  0  0  0  0
    0.2556   -2.9572    0.0000 H   0  0  0  0  0  0  0  0  0  0  0  0
    1.5027   -2.3693    0.0000 H   0  0  0  0  0  0  0  0  0  0  0  0
    2.9363   -2.4635    0.0000 H   0  0  0  0  0  0  0  0  0  0  0  0
    2.1288    2.6951    0.0000 H   0  0  0  0  0  0  0  0  0  0  0  0
    1.5955    2.9081    0.0000 H   0  0  0  0  0  0  0  0  0  0  0  0
    2.7202    3.7557    0.0000 H   0  0  0  0  0  0  0  0  0  0  0  0
    4.7666    4.1179    0.0000 H   0  0  0  0  0  0  0  0  0  0  0  0
    2.6831    5.1199    0.0000 H   0  0  0  0  0  0  0  0  0  0  0  0
    4.6582    4.8949    0.0000 H   0  0  0  0  0  0  0  0  0  0  0  0
    2.1431    3.3537    0.0000 H   0  0  0  0  0  0  0  0  0  0  0  0
    7.0184    3.2182    0.0000 H   0  0  0  0  0  0  0  0  0  0  0  0
    6.9507    4.6288    0.0000 H   0  0  0  0  0  0  0  0  0  0  0  0
    2.6004    0.7041    0.0000 H   0  0  0  0  0  0  0  0  0  0  0  0
    2.6004   -0.7041    0.0000 H   0  0  0  0  0  0  0  0  0  0  0  0
    0.6805   -2.6860    0.0000 H   0  0  0  0  0  0  0  0  0  0  0  0
  1  2  1  0
  2  3  2  3
  3  4  1  0
  4  5  1  0
  5  6  1  0
  6  7  1  0
  7  8  1  0
  7  9  1  0
  9 10  1  0
 10 11  1  0
 11 12  1  0
 11 13  2  0
  3 14  1  0
 14 15  1  0
 15 16  1  0
 16 17  1  0
 17 18  1  0
 18 19  1  0
 19 20  1  0
 20 21  1  0
 21 22  1  0
 22 23  1  0
 23 24  1  0
 24 25  1  0
 25 26  1  0
 26 27  1  0
 27 28  1  0
 25 29  1  0
 29 30  1  6
 30 31  1  0
 31 32  1  0
 32 33  1  0
 33 34  1  0
 34 35  1  0
 35 36  1  0
 36 37  1  0
 36 38  1  0
 38 39  1  0
 34 40  1  0
 40 41  1  6
 40 42  1  0
 42 43  1  0
 43 44  1  0
 44 45  1  0
 38 14  1  0
 45 40  1  0
 31 18  1  0
 43 32  1  0
 22 20  1  0
 29 23  1  0
 29 24  1  0
 28 25  1  0
  1 46  1  0
  1 47  1  0
  1 48  1  0
  2 49  1  0
  4 50  1  0
  4 51  1  0
  5 52  1  0
  5 53  1  0
  6 54  1  0
  6 55  1  0
  7 56  1  1
  8 57  1  0
  9 58  1  0
  9 59  1  0
 10 60  1  0
 10 61  1  0
 11 62  1  6
 12 63  1  0
 12 64  1  0
 12 65  1  0
 14 66  1  6
 15 67  1  0
 15 68  1  0
 16 69  1  0
 16 70  1  0
 17 71  1  0
 17 72  1  0
 18 73  1  6
 19 74  1  0
 19 75  1  0
 20 76  1  6
 21 77  1  0
 21 78  1  0
 22 79  1  1
 23 80  1  1
 24 81  1  6
 26 82  1  0
 26 83  1  0
 27 84  1  0
 27 85  1  0
 28 86  1  0
 28 87  1  0
 30 88  1  0
 30 89  1  0
 31 90  1  1
 32 91  1  6
 34 92  1  6
 35 93  1  0
 35 94  1  0
 36 95  1  6
 37 96  1  0
 37 97  1  0
 37 98  1  0
 38 99  1  1
 39100  1  0
 42101  1  0
 42102  1  0
 43103  1  6
M  RAD  1  11   2
M  END
$$$$
