
     RDKit          2D

 56 61  0  0  0  0  0  0  0  0999 V2000
    1.6160   -1.2990    0.0000 C   0  0  0  0  0  0  0  0  0  0  0  0
    0.3170   -2.0490    0.0000 C   0  0  0  0  0  0  0  0  0  0  0  0
   -0.9821   -2.7990    0.0000 C   0  0  0  0  0  0  0  0  0  0  0  0
   -1.7321   -1.5000    0.0000 C   0  0  0  0  0  0  0  0  0  0  0  0
   -3.0311   -0.7500    0.0000 C   0  0  0  0  0  0  0  0  0  0  0  0
   -3.0311    0.7500    0.0000 C   0  0  0  0  0  0  0  0  0  0  0  0
   -4.6034    0.6777    0.0000 C   0  0  0  0  0  0  0  0  0  0  0  0
   -4.9916    2.1266    0.0000 C   0  0  0  0  0  0  0  0  0  0  0  0
   -3.9309    3.1873    0.0000 C   0  0  0  0  0  0  0  0  0  0  0  0
   -2.4821    2.7990    0.0000 C   0  0  0  0  0  0  0  0  0  0  0  0
   -2.0938    4.2479    0.0000 C   0  0  0  0  0  0  0  0  0  0  0  0
   -2.7277    5.6074    0.0000 C   0  0  0  0  0  0  0  0  0  0  0  0
   -4.0872    6.2413    0.0000 C   0  0  0  0  0  0  0  0  0  0  0  0
   -5.5361    5.8531    0.0000 C   0  0  0  0  0  0  0  0  0  0  0  0
   -6.3965    4.6244    0.0000 C   0  0  0  0  0  0  0  0  0  0  0  0
   -6.2657    3.1301    0.0000 C   0  0  0  0  0  0  0  0  0  0  0  0
   -7.7347    3.4334    0.0000 C   0  0  0  0  0  0  0  0  0  0  0  0
   -9.2038    3.7367    0.0000 Cl  0  0  0  0  0  0  0  0  0  0  0  0
   -3.7811    2.0490    0.0000 C   0  0  0  0  0  0  0  0  0  0  0  0
   -1.7321    1.5000    0.0000 C   0  0  0  0  0  0  0  0  0  0  0  0
   -0.4330    0.7500    0.0000 C   0  0  0  0  0  0  0  0  0  0  0  0
    0.8660    0.0000    0.0000 C   0  0  0  0  0  0  0  0  0  0  0  0
   -0.4330   -0.7500    0.0000 C   0  0  0  0  0  0  0  0  0  0  0  0
    2.9151   -0.5490    0.0000 H   0  0  0  0  0  0  0  0  0  0  0  0
    1.3963   -0.5327    0.0000 H   0  0  0  0  0  0  0  0  0  0  0  0
    2.3660   -2.5981    0.0000 H   0  0  0  0  0  0  0  0  0  0  0  0
    1.0670   -3.3481    0.0000 H   0  0  0  0  0  0  0  0  0  0  0  0
   -0.2321   -4.0981    0.0000 H   0  0  0  0  0  0  0  0  0  0  0  0
   -2.2811   -3.5490    0.0000 H   0  0  0  0  0  0  0  0  0  0  0  0
   -2.6555   -2.6820    0.0000 H   0  0  0  0  0  0  0  0  0  0  0  0
   -4.5290   -0.6715    0.0000 H   0  0  0  0  0  0  0  0  0  0  0  0
   -3.7121   -2.0865    0.0000 H   0  0  0  0  0  0  0  0  0  0  0  0
   -6.0977    0.5470    0.0000 H   0  0  0  0  0  0  0  0  0  0  0  0
   -4.9153   -0.7895    0.0000 H   0  0  0  0  0  0  0  0  0  0  0  0
   -6.4834    1.9697    0.0000 H   0  0  0  0  0  0  0  0  0  0  0  0
   -3.2970    4.5467    0.0000 H   0  0  0  0  0  0  0  0  0  0  0  0
   -5.1597    4.0476    0.0000 H   0  0  0  0  0  0  0  0  0  0  0  0
   -0.8171    3.4605    0.0000 H   0  0  0  0  0  0  0  0  0  0  0  0
   -0.8601    5.1011    0.0000 H   0  0  0  0  0  0  0  0  0  0  0  0
   -1.2812    6.0041    0.0000 H   0  0  0  0  0  0  0  0  0  0  0  0
   -2.3311    7.0540    0.0000 H   0  0  0  0  0  0  0  0  0  0  0  0
   -3.2340    7.4751    0.0000 H   0  0  0  0  0  0  0  0  0  0  0  0
   -4.7132    7.6045    0.0000 H   0  0  0  0  0  0  0  0  0  0  0  0
   -5.6756    7.3466    0.0000 H   0  0  0  0  0  0  0  0  0  0  0  0
   -6.8918    6.4949    0.0000 H   0  0  0  0  0  0  0  0  0  0  0  0
   -7.3268    5.8010    0.0000 H   0  0  0  0  0  0  0  0  0  0  0  0
   -7.8964    4.6070    0.0000 H   0  0  0  0  0  0  0  0  0  0  0  0
   -7.1333    1.9064    0.0000 H   0  0  0  0  0  0  0  0  0  0  0  0
   -8.0381    1.9644    0.0000 H   0  0  0  0  0  0  0  0  0  0  0  0
   -7.7959    4.9321    0.0000 H   0  0  0  0  0  0  0  0  0  0  0  0
   -5.2230    1.6357    0.0000 H   0  0  0  0  0  0  0  0  0  0  0  0
   -4.8231    3.1280    0.0000 H   0  0  0  0  0  0  0  0  0  0  0  0
   -0.6714    2.5607    0.0000 H   0  0  0  0  0  0  0  0  0  0  0  0
    0.3170    2.0490    0.0000 H   0  0  0  0  0  0  0  0  0  0  0  0
    1.8302    1.1491    0.0000 H   0  0  0  0  0  0  0  0  0  0  0  0
    2.0796   -0.8816    0.0000 H   0  0  0  0  0  0  0  0  0  0  0  0
  1  2  1  0
  2  3  1  0
  3  4  1  0
  4  5  1  0
  5  6  1  0
  6  7  1  0
  7  8  1  0
  8  9  1  0
  9 10  1  0
 10 11  1  0
 11 12  1  0
 12 13  1  0
 13 14  1  0
 14 15  1  0
 15 16  1  0
 16 17  1  0
 17 18  1  0
 10 19  1  0
 10 20  1  0
 20 21  1  0
 21 22  1  0
 22 23  1  0
 23  2  1  0
 23  4  1  0
 19  6  1  0
 23 21  1  0
 20  6  1  0
 16  8  1  0
  1 24  1  0
  1 25  1  0
  1 26  1  0
  2 27  1  0
  3 28  1  0
  3 29  1  0
  4 30  1  0
  5 31  1  0
  5 32  1  0
  7 33  1  0
  7 34  1  0
  8 35  1  0
  9 36  1  0
  9 37  1  0
 11 38  1  0
 11 39  1  0
 12 40  1  0
 12 41  1  0
 13 42  1  0
 13 43  1  0
 14 44  1  0
 14 45  1  0
 15 46  1  0
 15 47  1  0
 16 48  1  0
 17 49  1  0
 17 50  1  0
 19 51  1  0
 19 52  1  0
 20 53  1  0
 21 54  1  0
 22 55  1  0
 22 56  1  0
M  END
$$$$
