
     RDKit          2D

 45 47  0  0  0  0  0  0  0  0999 V2000
    3.8173    0.5402    0.0000 C   0  0  0  0  0  0  0  0  0  0  0  0
    2.3907    1.0037    0.0000 C   0  0  0  0  0  0  0  0  0  0  0  0
    1.2760    0.0000    0.0000 C   0  0  0  0  0  0  0  0  0  0  0  0
    0.3943    1.2135    0.0000 C   0  0  0  0  0  0  0  0  0  0  0  0
   -1.0323    0.7500    0.0000 C   0  0  0  0  0  0  0  0  0  0  0  0
   -2.6934    0.6786    0.0000 C   0  0  0  0  0  0  0  0  0  0  0  0
   -3.4771   -0.6004    0.0000 C   0  0  0  0  0  0  0  0  0  0  0  0
   -3.1270   -2.0589    0.0000 C   0  0  0  0  0  0  0  0  0  0  0  0
   -3.5530   -3.4971    0.0000 C   0  0  0  0  0  0  0  0  0  0  0  0
   -1.8480   -2.8427    0.0000 O   0  0  0  0  0  0  0  0  0  0  0  0
   -0.3894   -2.4925    0.0000 C   0  0  0  0  0  0  0  0  0  0  0  0
    1.0488   -2.9185    0.0000 N   0  0  0  0  0  0  0  0  0  0  0  0
    1.3989   -4.3771    0.0000 C   0  0  0  0  0  0  0  0  0  0  0  0
    2.8575   -4.0269    0.0000 C   0  0  0  0  0  0  0  0  0  0  0  0
    3.2077   -5.4855    0.0000 N   0  0  0  0  0  0  0  0  0  0  0  0
    1.7491   -5.8356    0.0000 C   0  0  0  0  0  0  0  0  0  0  0  0
    0.2906   -6.1858    0.0000 C   0  0  0  0  0  0  0  0  0  0  0  0
    0.3943   -1.2135    0.0000 N   0  0  0  0  0  0  0  0  0  0  0  0
   -1.0323   -0.7500    0.0000 N   0  0  0  0  0  0  0  0  0  0  0  0
    4.9320    1.5439    0.0000 H   0  0  0  0  0  0  0  0  0  0  0  0
    4.1291   -0.9271    0.0000 H   0  0  0  0  0  0  0  0  0  0  0  0
    2.2848    2.2141    0.0000 H   0  0  0  0  0  0  0  0  0  0  0  0
    2.2792   -0.9033    0.0000 H   0  0  0  0  0  0  0  0  0  0  0  0
   -0.2158    2.5838    0.0000 H   0  0  0  0  0  0  0  0  0  0  0  0
    1.3646    1.9448    0.0000 H   0  0  0  0  0  0  0  0  0  0  0  0
   -1.9209    1.5787    0.0000 H   0  0  0  0  0  0  0  0  0  0  0  0
   -4.0690    1.2768    0.0000 H   0  0  0  0  0  0  0  0  0  0  0  0
   -2.8099    1.8880    0.0000 H   0  0  0  0  0  0  0  0  0  0  0  0
   -4.8728   -1.1501    0.0000 H   0  0  0  0  0  0  0  0  0  0  0  0
   -4.6346    0.3537    0.0000 H   0  0  0  0  0  0  0  0  0  0  0  0
   -4.6201   -2.2027    0.0000 H   0  0  0  0  0  0  0  0  0  0  0  0
   -3.9790   -4.9354    0.0000 H   0  0  0  0  0  0  0  0  0  0  0  0
   -4.9912   -3.0711    0.0000 H   0  0  0  0  0  0  0  0  0  0  0  0
   -2.1148   -3.9232    0.0000 H   0  0  0  0  0  0  0  0  0  0  0  0
   -0.7904   -3.9379    0.0000 H   0  0  0  0  0  0  0  0  0  0  0  0
    1.9075   -1.8768    0.0000 H   0  0  0  0  0  0  0  0  0  0  0  0
    0.4420   -4.6068    0.0000 H   0  0  0  0  0  0  0  0  0  0  0  0
    4.3161   -3.6767    0.0000 H   0  0  0  0  0  0  0  0  0  0  0  0
    2.6877   -2.5365    0.0000 H   0  0  0  0  0  0  0  0  0  0  0  0
    4.4866   -6.2692    0.0000 H   0  0  0  0  0  0  0  0  0  0  0  0
    2.0993   -7.2942    0.0000 H   0  0  0  0  0  0  0  0  0  0  0  0
   -1.1680   -6.5360    0.0000 H   0  0  0  0  0  0  0  0  0  0  0  0
    0.6407   -7.6443    0.0000 H   0  0  0  0  0  0  0  0  0  0  0  0
   -0.1639   -5.3129    0.0000 H   0  0  0  0  0  0  0  0  0  0  0  0
   -2.2458   -1.6317    0.0000 H   0  0  0  0  0  0  0  0  0  0  0  0
  1  2  2  3
  2  3  1  0
  3  4  1  0
  4  5  1  0
  5  6  1  0
  6  7  1  0
  7  8  1  0
  8  9  1  0
  8 10  1  0
 10 11  1  0
 11 12  1  0
 12 13  1  0
 13 14  1  0
 14 15  1  0
 15 16  1  0
 16 17  1  0
 11 18  1  0
 18 19  1  0
 18  3  1  0
 19  5  1  0
 16 13  1  0
  1 20  1  0
  1 21  1  0
  2 22  1  0
  3 23  1  6
  4 24  1  0
  4 25  1  0
  5 26  1  1
  6 27  1  0
  6 28  1  0
  7 29  1  0
  7 30  1  0
  8 31  1  6
  9 32  1  0
  9 33  1  0
  9 34  1  0
 11 35  1  6
 12 36  1  0
 13 37  1  6
 14 38  1  0
 14 39  1  0
 15 40  1  0
 16 41  1  1
 17 42  1  0
 17 43  1  0
 17 44  1  0
 19 45  1  0
M  END
$$$$
