
     RDKit          2D

 31 33  0  0  0  0  0  0  0  0999 V2000
    3.8323   -2.7716    0.0000 N   0  0  0  0  0  0  0  0  0  0  0  0
    2.7716   -1.7110    0.0000 C   0  0  0  0  0  0  0  0  0  0  0  0
    1.3858   -2.2850    0.0000 C   0  0  0  0  0  0  0  0  0  0  0  0
   -0.0000   -1.0607    0.0000 C   0  0  0  0  0  0  0  0  0  0  0  0
    1.0607    0.0000    0.0000 C   0  0  0  0  0  0  0  0  0  0  0  0
    0.0000    1.0607    0.0000 C   0  0  0  0  0  0  0  0  0  0  0  0
    1.3858    1.6347    0.0000 C   0  0  0  0  0  0  0  0  0  0  0  0
    2.7716    1.0607    0.0000 C   0  0  0  0  0  0  0  0  0  0  0  0
    3.3457   -0.3252    0.0000 C   0  0  0  0  0  0  0  0  0  0  0  0
    4.5357    0.5880    0.0000 C   0  0  0  0  0  0  0  0  0  0  0  0
    5.9663    1.0390    0.0000 C   0  0  0  0  0  0  0  0  0  0  0  0
    5.6416   -0.4254    0.0000 N   0  0  0  0  0  0  0  0  0  0  0  0
    6.0927   -1.8560    0.0000 Br  0  0  0  0  0  0  0  0  0  0  0  0
   -1.0607    0.0000    0.0000 C   0  0  0  0  0  0  0  0  0  0  0  0
    3.4441   -4.2205    0.0000 H   0  0  0  0  0  0  0  0  0  0  0  0
    2.2990   -3.4750    0.0000 H   0  0  0  0  0  0  0  0  0  0  0  0
    0.4727   -3.4750    0.0000 H   0  0  0  0  0  0  0  0  0  0  0  0
   -0.0000   -2.5607    0.0000 H   0  0  0  0  0  0  0  0  0  0  0  0
    2.1022    0.6257    0.0000 H   0  0  0  0  0  0  0  0  0  0  0  0
    2.1213   -1.0607    0.0000 H   0  0  0  0  0  0  0  0  0  0  0  0
   -0.1646    2.4006    0.0000 H   0  0  0  0  0  0  0  0  0  0  0  0
    0.7007    2.7979    0.0000 H   0  0  0  0  0  0  0  0  0  0  0  0
    2.1471    2.9271    0.0000 H   0  0  0  0  0  0  0  0  0  0  0  0
    3.1472    2.5129    0.0000 H   0  0  0  0  0  0  0  0  0  0  0  0
    3.4722    1.4411    0.0000 H   0  0  0  0  0  0  0  0  0  0  0  0
    4.5357   -1.2383    0.0000 H   0  0  0  0  0  0  0  0  0  0  0  0
    4.2565    1.3347    0.0000 H   0  0  0  0  0  0  0  0  0  0  0  0
    5.7705    2.5262    0.0000 H   0  0  0  0  0  0  0  0  0  0  0  0
    7.4648    0.9736    0.0000 H   0  0  0  0  0  0  0  0  0  0  0  0
   -2.1213   -1.0607    0.0000 H   0  0  0  0  0  0  0  0  0  0  0  0
   -2.1213    1.0607    0.0000 H   0  0  0  0  0  0  0  0  0  0  0  0
  1  2  2  3
  2  3  1  0
  3  4  1  0
  4  5  1  0
  5  6  1  0
  6  7  1  0
  7  8  1  0
  8  9  1  0
  9 10  1  0
 10 11  1  0
 11 12  1  0
 12 13  1  0
  6 14  1  0
  9  2  1  0
 12 10  1  0
 14  4  1  0
  1 15  1  0
  3 16  1  0
  3 17  1  0
  4 18  1  0
  5 19  1  0
  5 20  1  0
  6 21  1  0
  7 22  1  0
  7 23  1  0
  8 24  1  0
  8 25  1  0
  9 26  1  0
 10 27  1  0
 11 28  1  0
 11 29  1  0
 14 30  1  0
 14 31  1  0
M  END
$$$$
