
     RDKit          2D

 27 28  0  0  0  0  0  0  0  0999 V2000
    3.3500   -2.3216    0.0000 C   0  0  0  0  0  0  0  0  0  0  0  0
    2.1213   -3.1820    0.0000 C   0  0  0  0  0  0  0  0  0  0  0  0
    1.0607   -2.1213    0.0000 C   0  0  0  0  0  0  0  0  0  0  0  0
   -0.0000   -1.0607    0.0000 C   0  0  0  0  0  0  0  0  0  0  0  0
    1.0607    0.0000    0.0000 C   0  0  0  0  0  0  0  0  0  0  0  0
    0.0000    1.0607    0.0000 C   0  0  0  0  0  0  0  0  0  0  0  0
   -1.0607    2.1213    0.0000 N   0  0  0  0  0  0  0  0  0  0  0  0
   -1.0607    0.0000    0.0000 C   0  0  0  0  0  0  0  0  0  0  0  0
    2.7552   -4.5414    0.0000 C   0  0  0  0  0  0  0  0  0  0  0  0
    1.2610   -4.4107    0.0000 C   0  0  0  0  0  0  0  0  0  0  0  0
    4.5788   -1.4613    0.0000 H   0  0  0  0  0  0  0  0  0  0  0  0
    3.8073   -2.9746    0.0000 H   0  0  0  0  0  0  0  0  0  0  0  0
    3.9517   -2.8446    0.0000 H   0  0  0  0  0  0  0  0  0  0  0  0
    2.2427   -1.1979    0.0000 H   0  0  0  0  0  0  0  0  0  0  0  0
   -0.1214   -3.0448    0.0000 H   0  0  0  0  0  0  0  0  0  0  0  0
   -1.0607   -2.1213    0.0000 H   0  0  0  0  0  0  0  0  0  0  0  0
    2.1213    1.0607    0.0000 H   0  0  0  0  0  0  0  0  0  0  0  0
    2.2427   -0.9235    0.0000 H   0  0  0  0  0  0  0  0  0  0  0  0
    1.0607    2.1213    0.0000 H   0  0  0  0  0  0  0  0  0  0  0  0
   -0.6724    3.5702    0.0000 H   0  0  0  0  0  0  0  0  0  0  0  0
   -2.5461    1.9126    0.0000 H   0  0  0  0  0  0  0  0  0  0  0  0
   -2.1213   -1.0607    0.0000 H   0  0  0  0  0  0  0  0  0  0  0  0
   -2.2427    0.9235    0.0000 H   0  0  0  0  0  0  0  0  0  0  0  0
    4.2550   -4.5153    0.0000 H   0  0  0  0  0  0  0  0  0  0  0  0
    2.8860   -6.0357    0.0000 H   0  0  0  0  0  0  0  0  0  0  0  0
    0.8727   -5.8596    0.0000 H   0  0  0  0  0  0  0  0  0  0  0  0
   -0.1656   -3.9472    0.0000 H   0  0  0  0  0  0  0  0  0  0  0  0
  1  2  1  0
  2  3  1  0
  3  4  1  0
  4  5  1  0
  5  6  1  0
  6  7  1  0
  6  8  1  0
  2  9  1  0
  9 10  1  0
 10  2  1  0
  8  4  1  0
  1 11  1  0
  1 12  1  0
  1 13  1  0
  3 14  1  0
  3 15  1  0
  4 16  1  0
  5 17  1  0
  5 18  1  0
  6 19  1  0
  7 20  1  0
  7 21  1  0
  8 22  1  0
  8 23  1  0
  9 24  1  0
  9 25  1  0
 10 26  1  0
 10 27  1  0
M  END
$$$$
