
     RDKit          2D

 51 58  0  0  0  0  0  0  0  0999 V2000
   -7.4435    3.5262    0.0000 C   0  0  0  0  0  0  0  0  0  0  0  0
   -6.6935    2.2272    0.0000 C   0  0  0  0  0  0  0  0  0  0  0  0
   -7.8426    1.2630    0.0000 C   0  0  0  0  0  0  0  0  0  0  0  0
   -6.4330    0.7500    0.0000 C   0  0  0  0  0  0  0  0  0  0  0  0
   -4.9330    0.7500    0.0000 C   0  0  0  0  0  0  0  0  0  0  0  0
   -3.4330    0.7500    0.0000 C   0  0  0  0  0  0  0  0  0  0  0  0
   -3.4330   -0.7500    0.0000 N   0  0  0  0  0  0  0  0  0  0  0  0
   -4.7321   -1.5000    0.0000 N   0  0  0  0  0  2  0  0  0  0  0  0
   -4.7321   -3.0000    0.0000 C   0  0  0  0  0  0  0  0  0  0  0  0
   -3.2321   -3.0000    0.0000 N   0  0  0  0  0  2  0  0  0  0  0  0
   -6.2321   -3.0000    0.0000 C   0  0  0  0  0  0  0  0  0  0  0  0
   -6.2321   -4.5000    0.0000 C   0  0  0  0  0  0  0  0  0  0  0  0
   -5.4821   -5.7990    0.0000 C   0  0  0  0  0  0  0  0  0  0  0  0
   -4.7321   -4.5000    0.0000 N   0  0  0  0  0  0  0  0  0  0  0  0
   -1.9330    0.7500    0.0000 C   0  0  0  0  0  0  0  0  0  0  0  0
   -0.4330    0.7500    0.0000 C   0  0  0  0  0  0  0  0  0  0  0  0
    0.8660    1.5000    0.0000 O   0  0  0  0  0  0  0  0  0  0  0  0
   -0.4330    2.2500    0.0000 C   0  0  0  0  0  0  0  0  0  0  0  0
   -1.1830    3.5490    0.0000 C   0  0  0  0  0  0  0  0  0  0  0  0
   -0.4330    4.8481    0.0000 C   0  0  0  0  0  0  0  0  0  0  0  0
   -1.1830    6.1471    0.0000 C   0  0  0  0  0  0  0  0  0  0  0  0
   -2.6830    6.1471    0.0000 C   0  0  0  0  0  0  0  0  0  0  0  0
   -3.4330    4.8481    0.0000 C   0  0  0  0  0  0  0  0  0  0  0  0
   -2.6830    3.5490    0.0000 C   0  0  0  0  0  0  0  0  0  0  0  0
   -1.9330    2.2500    0.0000 C   0  0  0  0  0  0  0  0  0  0  0  0
   -8.1935    4.8253    0.0000 H   0  0  0  0  0  0  0  0  0  0  0  0
   -6.1444    4.2762    0.0000 H   0  0  0  0  0  0  0  0  0  0  0  0
   -8.6862    2.9988    0.0000 H   0  0  0  0  0  0  0  0  0  0  0  0
   -5.4906    2.8401    0.0000 H   0  0  0  0  0  0  0  0  0  0  0  0
   -8.5926   -0.0360    0.0000 H   0  0  0  0  0  0  0  0  0  0  0  0
   -8.9748    1.9983    0.0000 H   0  0  0  0  0  0  0  0  0  0  0  0
   -6.5036   -0.5982    0.0000 H   0  0  0  0  0  0  0  0  0  0  0  0
   -5.2960   -0.7054    0.0000 H   0  0  0  0  0  0  0  0  0  0  0  0
   -4.7685    2.0899    0.0000 H   0  0  0  0  0  0  0  0  0  0  0  0
   -3.4330    2.2500    0.0000 H   0  0  0  0  0  0  0  0  0  0  0  0
   -2.2351   -1.6528    0.0000 H   0  0  0  0  0  0  0  0  0  0  0  0
   -2.4821   -4.2990    0.0000 H   0  0  0  0  0  0  0  0  0  0  0  0
   -7.7321   -3.0000    0.0000 H   0  0  0  0  0  0  0  0  0  0  0  0
   -6.0675   -1.6601    0.0000 H   0  0  0  0  0  0  0  0  0  0  0  0
   -7.6809   -4.8882    0.0000 H   0  0  0  0  0  0  0  0  0  0  0  0
   -6.6311   -6.7632    0.0000 H   0  0  0  0  0  0  0  0  0  0  0  0
   -4.3330   -6.7632    0.0000 H   0  0  0  0  0  0  0  0  0  0  0  0
   -1.7502   -0.7388    0.0000 H   0  0  0  0  0  0  0  0  0  0  0  0
   -0.0448   -0.6989    0.0000 H   0  0  0  0  0  0  0  0  0  0  0  0
    0.7161    5.8123    0.0000 H   0  0  0  0  0  0  0  0  0  0  0  0
    0.7161    3.8839    0.0000 H   0  0  0  0  0  0  0  0  0  0  0  0
   -0.4330    7.4462    0.0000 H   0  0  0  0  0  0  0  0  0  0  0  0
   -3.4330    7.4462    0.0000 H   0  0  0  0  0  0  0  0  0  0  0  0
   -4.5821    3.8839    0.0000 H   0  0  0  0  0  0  0  0  0  0  0  0
   -4.5821    5.8123    0.0000 H   0  0  0  0  0  0  0  0  0  0  0  0
   -1.6041    4.5911    0.0000 H   0  0  0  0  0  0  0  0  0  0  0  0
  1  2  1  0
  2  3  1  0
  3  4  1  0
  4  5  1  0
  5  6  1  0
  6  7  1  0
  7  8  1  0
  8  9  1  0
  9 10  1  0
  9 11  1  0
 11 12  1  0
 12 13  1  0
 13 14  1  0
  6 15  1  0
 15 16  1  0
 16 17  1  0
 18 17  1  1
 18 19  1  0
 19 20  1  1
 20 21  1  0
 21 22  2  0
 22 23  1  0
 23 24  1  0
 24 25  1  0
  4  2  1  0
 14  9  1  0
 25 15  1  0
 14 12  1  0
 18 16  1  0
 24 19  1  0
 25 18  1  6
 25 19  1  0
  1 26  1  0
  1 27  1  0
  1 28  1  0
  2 29  1  6
  3 30  1  0
  3 31  1  0
  4 32  1  1
  5 33  1  0
  5 34  1  0
  6 35  1  6
  7 36  1  0
 10 37  1  0
 11 38  1  0
 11 39  1  0
 12 40  1  6
 13 41  1  0
 13 42  1  0
 15 43  1  6
 16 44  1  6
 20 45  1  0
 20 46  1  0
 21 47  1  0
 22 48  1  0
 23 49  1  0
 23 50  1  0
 24 51  1  6
M  RAD  2   8   2  10   2
M  END
$$$$
