
     RDKit          2D

 66 68  0  0  0  0  0  0  0  0999 V2000
   -6.6148    1.7772    0.0000 C   0  0  0  0  0  0  0  0  0  0  0  0
   -5.6507    0.6281    0.0000 N   0  0  0  0  0  0  0  0  0  0  0  0
   -4.1734    0.8886    0.0000 C   0  0  0  0  0  0  0  0  0  0  0  0
   -3.9130   -0.5886    0.0000 O   0  0  0  0  0  0  0  0  0  0  0  0
   -2.6962    1.1491    0.0000 N   0  0  0  0  0  0  0  0  0  0  0  0
   -2.1832    2.5586    0.0000 C   0  0  0  0  0  0  0  0  0  0  0  0
   -1.6702    3.9681    0.0000 N   0  0  0  0  0  0  0  0  0  0  0  0
   -0.1930    4.2286    0.0000 C   0  0  0  0  0  0  0  0  0  0  0  0
    1.1061    4.9786    0.0000 C   0  0  0  0  0  0  0  0  0  0  0  0
   -0.1930    5.7286    0.0000 C   0  0  0  0  0  0  0  0  0  0  0  0
    0.3201    7.1382    0.0000 C   0  0  0  0  0  0  0  0  0  0  0  0
    0.8331    8.5477    0.0000 C   0  0  0  0  0  0  0  0  0  0  0  0
    1.3461    9.9572    0.0000 C   0  0  0  0  0  0  0  0  0  0  0  0
    1.8592   11.3668    0.0000 C   0  0  0  0  0  0  0  0  0  0  0  0
    2.3722   12.7763    0.0000 O   0  0  0  0  0  0  0  0  0  0  0  0
    1.4080   13.9254    0.0000 C   0  0  0  0  0  0  0  0  0  0  0  0
    0.4438   15.0744    0.0000 C   0  0  0  0  0  0  0  0  0  0  0  0
   -0.5204   16.2235    0.0000 C   0  0  0  0  0  0  0  0  0  0  0  0
   -0.7052   14.1103    0.0000 C   0  0  0  0  0  0  0  0  0  0  0  0
   -2.6344    5.1172    0.0000 As  0  0  0  0  0  3  0  0  0  0  0  0
   -2.1213    6.5268    0.0000 O   0  0  0  0  0  0  0  0  0  0  0  0
   -4.1116    4.8567    0.0000 C   0  0  0  0  0  0  0  0  0  0  0  0
   -5.5888    4.5963    0.0000 O   0  0  0  0  0  0  0  0  0  0  0  0
   -6.5530    5.7453    0.0000 O   0  0  0  0  0  0  0  0  0  0  0  0
   -1.7321    0.0000    0.0000 C   0  0  0  0  0  0  0  0  0  0  0  0
   -0.4330    0.7500    0.0000 C   0  0  0  0  0  0  0  0  0  0  0  0
    0.8660    0.0000    0.0000 C   0  0  0  0  0  0  0  0  0  0  0  0
   -0.4330   -0.7500    0.0000 C   0  0  0  0  0  0  0  0  0  0  0  0
   -7.5790    2.9263    0.0000 H   0  0  0  0  0  0  0  0  0  0  0  0
   -7.7639    0.8130    0.0000 H   0  0  0  0  0  0  0  0  0  0  0  0
   -5.4658    2.7414    0.0000 H   0  0  0  0  0  0  0  0  0  0  0  0
   -6.1637   -0.7814    0.0000 H   0  0  0  0  0  0  0  0  0  0  0  0
   -4.4339    2.3658    0.0000 H   0  0  0  0  0  0  0  0  0  0  0  0
   -5.0620   -1.5528    0.0000 H   0  0  0  0  0  0  0  0  0  0  0  0
   -3.4986    2.8623    0.0000 H   0  0  0  0  0  0  0  0  0  0  0  0
   -0.7216    2.2212    0.0000 H   0  0  0  0  0  0  0  0  0  0  0  0
    0.3201    2.8191    0.0000 H   0  0  0  0  0  0  0  0  0  0  0  0
    2.0703    3.8296    0.0000 H   0  0  0  0  0  0  0  0  0  0  0  0
    2.0934    5.8993    0.0000 H   0  0  0  0  0  0  0  0  0  0  0  0
   -1.1919    6.1734    0.0000 H   0  0  0  0  0  0  0  0  0  0  0  0
   -1.0895    7.6512    0.0000 H   0  0  0  0  0  0  0  0  0  0  0  0
    1.6355    6.8345    0.0000 H   0  0  0  0  0  0  0  0  0  0  0  0
    2.2426    8.0347    0.0000 H   0  0  0  0  0  0  0  0  0  0  0  0
   -0.5764    9.0607    0.0000 H   0  0  0  0  0  0  0  0  0  0  0  0
   -0.0634   10.4703    0.0000 H   0  0  0  0  0  0  0  0  0  0  0  0
    2.7557    9.4442    0.0000 H   0  0  0  0  0  0  0  0  0  0  0  0
    3.2687   10.8537    0.0000 H   0  0  0  0  0  0  0  0  0  0  0  0
    0.4496   11.8798    0.0000 H   0  0  0  0  0  0  0  0  0  0  0  0
    0.8040   13.2776    0.0000 H   0  0  0  0  0  0  0  0  0  0  0  0
    2.5571   14.8896    0.0000 H   0  0  0  0  0  0  0  0  0  0  0  0
    1.5929   16.0386    0.0000 H   0  0  0  0  0  0  0  0  0  0  0  0
   -1.4845   17.3726    0.0000 H   0  0  0  0  0  0  0  0  0  0  0  0
    0.6287   17.1877    0.0000 H   0  0  0  0  0  0  0  0  0  0  0  0
   -1.2632   15.7411    0.0000 H   0  0  0  0  0  0  0  0  0  0  0  0
   -1.8543   13.1461    0.0000 H   0  0  0  0  0  0  0  0  0  0  0  0
   -1.3530   14.7143    0.0000 H   0  0  0  0  0  0  0  0  0  0  0  0
   -0.2229   13.3674    0.0000 H   0  0  0  0  0  0  0  0  0  0  0  0
   -3.0855    7.6758    0.0000 H   0  0  0  0  0  0  0  0  0  0  0  0
   -4.0409    3.5086    0.0000 H   0  0  0  0  0  0  0  0  0  0  0  0
   -4.3720    6.3340    0.0000 H   0  0  0  0  0  0  0  0  0  0  0  0
   -8.0302    5.4849    0.0000 H   0  0  0  0  0  0  0  0  0  0  0  0
   -2.6962   -1.1491    0.0000 H   0  0  0  0  0  0  0  0  0  0  0  0
   -0.2502    2.2388    0.0000 H   0  0  0  0  0  0  0  0  0  0  0  0
    1.8302    1.1491    0.0000 H   0  0  0  0  0  0  0  0  0  0  0  0
    1.8302   -1.1491    0.0000 H   0  0  0  0  0  0  0  0  0  0  0  0
   -0.4330   -2.2500    0.0000 H   0  0  0  0  0  0  0  0  0  0  0  0
  1  2  1  0
  2  3  1  0
  3  4  1  0
  3  5  1  0
  5  6  1  0
  6  7  1  0
  7  8  1  0
  8  9  1  0
  9 10  1  0
 10 11  1  0
 11 12  1  0
 12 13  1  0
 13 14  1  0
 14 15  1  0
 15 16  1  0
 16 17  1  0
 17 18  1  0
 17 19  1  0
  7 20  1  0
 20 21  1  0
 20 22  1  0
 22 23  1  0
 23 24  1  0
  5 25  1  0
 25 26  1  0
 26 27  1  0
 27 28  1  0
 10  8  1  0
 28 25  1  0
 28 26  1  0
  1 29  1  0
  1 30  1  0
  1 31  1  0
  2 32  1  0
  3 33  1  0
  4 34  1  0
  6 35  1  0
  6 36  1  0
  8 37  1  0
  9 38  1  0
  9 39  1  0
 10 40  1  0
 11 41  1  0
 11 42  1  0
 12 43  1  0
 12 44  1  0
 13 45  1  0
 13 46  1  0
 14 47  1  0
 14 48  1  0
 16 49  1  0
 16 50  1  0
 17 51  1  0
 18 52  1  0
 18 53  1  0
 18 54  1  0
 19 55  1  0
 19 56  1  0
 19 57  1  0
 21 58  1  0
 22 59  1  0
 22 60  1  0
 24 61  1  0
 25 62  1  0
 26 63  1  0
 27 64  1  0
 27 65  1  0
 28 66  1  0
M  END
$$$$
