
     RDKit          2D

 71 79  0  0  0  0  0  0  0  0999 V2000
    2.1213    1.0607    0.0000 C   0  0  0  0  0  0  0  0  0  0  0  0
    1.0607    0.0000    0.0000 C   0  0  0  0  0  0  0  0  0  0  0  0
   -0.0000   -1.0607    0.0000 C   0  0  0  0  0  0  0  0  0  0  0  0
    1.2135   -2.6742    0.0000 C   0  0  0  0  0  0  0  0  0  0  0  0
    2.7135   -2.6742    0.0000 C   0  0  0  0  0  0  0  0  0  0  0  0
    3.9271   -1.7925    0.0000 C   0  0  0  0  0  0  0  0  0  0  0  0
    5.4271   -1.7925    0.0000 O   0  0  0  0  0  0  0  0  0  0  0  0
    6.1771   -3.0915    0.0000 C   0  0  0  0  0  0  0  0  0  0  0  0
    6.9271   -4.3906    0.0000 C   0  0  0  0  0  0  0  0  0  0  0  0
    8.1406   -3.5089    0.0000 C   0  0  0  0  0  0  0  0  0  0  0  0
    9.3541   -4.3906    0.0000 C   0  0  0  0  0  0  0  0  0  0  0  0
    8.8906   -5.8172    0.0000 C   0  0  0  0  0  0  0  0  0  0  0  0
    8.1406   -7.1162    0.0000 C   0  0  0  0  0  0  0  0  0  0  0  0
    7.3906   -5.8172    0.0000 C   0  0  0  0  0  0  0  0  0  0  0  0
    8.8655   -3.7872    0.0000 C   0  0  0  0  0  0  0  0  0  0  0  0
    9.0223   -2.2954    0.0000 C   0  0  0  0  0  0  0  0  0  0  0  0
   10.3926   -1.6853    0.0000 C   0  0  0  0  0  0  0  0  0  0  0  0
   10.0297   -0.2298    0.0000 C   0  0  0  0  0  0  0  0  0  0  0  0
   11.8889   -1.5806    0.0000 C   0  0  0  0  0  0  0  0  0  0  0  0
   10.2358   -3.1771    0.0000 C   0  0  0  0  0  0  0  0  0  0  0  0
    4.3906   -0.3659    0.0000 C   0  0  0  0  0  0  0  0  0  0  0  0
    3.9271    1.0607    0.0000 C   0  0  0  0  0  0  0  0  0  0  0  0
    2.7135    1.9423    0.0000 C   0  0  0  0  0  0  0  0  0  0  0  0
    1.2135    1.9423    0.0000 C   0  0  0  0  0  0  0  0  0  0  0  0
    0.0000    1.0607    0.0000 C   0  0  0  0  0  0  0  0  0  0  0  0
   -1.0607    0.0000    0.0000 C   0  0  0  0  0  0  0  0  0  0  0  0
   -2.1213   -1.0607    0.0000 C   0  0  0  0  0  0  0  0  0  0  0  0
    5.4086    0.8260    0.0000 C   0  0  0  0  0  0  0  0  0  0  0  0
    5.6432    2.3075    0.0000 N   0  0  0  0  0  0  0  0  0  0  0  0
    4.1617    2.5422    0.0000 C   0  0  0  0  0  0  0  0  0  0  0  0
    2.7495    1.5514    0.0000 H   0  0  0  0  0  0  0  0  0  0  0  0
    1.3488    2.3465    0.0000 H   0  0  0  0  0  0  0  0  0  0  0  0
    3.1820    0.0000    0.0000 H   0  0  0  0  0  0  0  0  0  0  0  0
    2.1213   -1.0607    0.0000 H   0  0  0  0  0  0  0  0  0  0  0  0
   -0.0000   -2.5607    0.0000 H   0  0  0  0  0  0  0  0  0  0  0  0
    1.4997   -4.1466    0.0000 H   0  0  0  0  0  0  0  0  0  0  0  0
    0.0000   -3.5559    0.0000 H   0  0  0  0  0  0  0  0  0  0  0  0
    3.8105   -3.6972    0.0000 H   0  0  0  0  0  0  0  0  0  0  0  0
    2.4274   -4.1466    0.0000 H   0  0  0  0  0  0  0  0  0  0  0  0
    4.3906   -3.2191    0.0000 H   0  0  0  0  0  0  0  0  0  0  0  0
    4.9791   -3.9943    0.0000 H   0  0  0  0  0  0  0  0  0  0  0  0
    7.3750   -2.1888    0.0000 H   0  0  0  0  0  0  0  0  0  0  0  0
    5.5567   -5.0007    0.0000 H   0  0  0  0  0  0  0  0  0  0  0  0
    7.2171   -2.3269    0.0000 H   0  0  0  0  0  0  0  0  0  0  0  0
   10.6906   -5.0716    0.0000 H   0  0  0  0  0  0  0  0  0  0  0  0
   10.2609   -6.4273    0.0000 H   0  0  0  0  0  0  0  0  0  0  0  0
    9.2896   -8.0804    0.0000 H   0  0  0  0  0  0  0  0  0  0  0  0
    6.9915   -8.0804    0.0000 H   0  0  0  0  0  0  0  0  0  0  0  0
    7.9838   -5.0007    0.0000 H   0  0  0  0  0  0  0  0  0  0  0  0
    9.6668    1.2256    0.0000 H   0  0  0  0  0  0  0  0  0  0  0  0
   11.4300    0.3078    0.0000 H   0  0  0  0  0  0  0  0  0  0  0  0
    8.5742   -0.5927    0.0000 H   0  0  0  0  0  0  0  0  0  0  0  0
   13.3853   -1.4760    0.0000 H   0  0  0  0  0  0  0  0  0  0  0  0
   11.9675   -0.0827    0.0000 H   0  0  0  0  0  0  0  0  0  0  0  0
   11.9936   -3.0770    0.0000 H   0  0  0  0  0  0  0  0  0  0  0  0
    5.7814    0.1959    0.0000 H   0  0  0  0  0  0  0  0  0  0  0  0
    5.7025   -1.0931    0.0000 H   0  0  0  0  0  0  0  0  0  0  0  0
    2.2500    3.3689    0.0000 H   0  0  0  0  0  0  0  0  0  0  0  0
    3.6776    3.0915    0.0000 H   0  0  0  0  0  0  0  0  0  0  0  0
    0.1165    2.9654    0.0000 H   0  0  0  0  0  0  0  0  0  0  0  0
    1.4997    3.4148    0.0000 H   0  0  0  0  0  0  0  0  0  0  0  0
   -0.1828    2.5495    0.0000 H   0  0  0  0  0  0  0  0  0  0  0  0
   -2.1213    1.0607    0.0000 H   0  0  0  0  0  0  0  0  0  0  0  0
   -3.1820   -2.1213    0.0000 H   0  0  0  0  0  0  0  0  0  0  0  0
   -3.1820    0.0000    0.0000 H   0  0  0  0  0  0  0  0  0  0  0  0
   -1.0607   -2.1213    0.0000 H   0  0  0  0  0  0  0  0  0  0  0  0
    6.8901    0.5914    0.0000 H   0  0  0  0  0  0  0  0  0  0  0  0
    5.3563   -0.6731    0.0000 H   0  0  0  0  0  0  0  0  0  0  0  0
    6.8568    3.1892    0.0000 H   0  0  0  0  0  0  0  0  0  0  0  0
    2.7810    3.1284    0.0000 H   0  0  0  0  0  0  0  0  0  0  0  0
    4.3964    4.0237    0.0000 H   0  0  0  0  0  0  0  0  0  0  0  0
  1  2  1  0
  2  3  1  0
  3  4  1  0
  4  5  1  0
  5  6  1  0
  6  7  1  0
  7  8  1  0
  8  9  1  0
  9 10  1  0
 10 11  1  0
 11 12  1  0
 12 13  1  0
 13 14  1  0
 14 15  1  0
 15 16  1  0
 16 17  1  0
 17 18  1  0
 17 19  1  0
 17 20  1  0
  6 21  1  0
 21 22  1  0
 22 23  1  0
 23 24  1  0
 24 25  1  0
 25 26  1  0
 26 27  1  0
 22 28  1  0
 28 29  1  0
 29 30  1  0
 25  2  1  0
 26  3  1  0
 14  9  1  0
 20 15  1  0
 30 22  1  0
 16 10  1  0
 20 11  1  0
 14 12  1  0
 20 16  1  0
  1 31  1  0
  1 32  1  0
  1 33  1  0
  2 34  1  0
  3 35  1  0
  4 36  1  0
  4 37  1  0
  5 38  1  0
  5 39  1  0
  6 40  1  0
  8 41  1  0
  8 42  1  0
  9 43  1  0
 10 44  1  0
 11 45  1  0
 12 46  1  0
 13 47  1  0
 13 48  1  0
 15 49  1  0
 18 50  1  0
 18 51  1  0
 18 52  1  0
 19 53  1  0
 19 54  1  0
 19 55  1  0
 21 56  1  0
 21 57  1  0
 23 58  1  0
 23 59  1  0
 24 60  1  0
 24 61  1  0
 25 62  1  0
 26 63  1  0
 27 64  1  0
 27 65  1  0
 27 66  1  0
 28 67  1  0
 28 68  1  0
 29 69  1  0
 30 70  1  0
 30 71  1  0
M  END
$$$$
