
     RDKit          3D

 20 21  0  0  0  0  0  0  0  0999 V2000
   16.3730  -33.0160  -14.0907 C   0  0  0  0  0  0  0  0  0  0  0  0
   15.8338  -31.9680  -15.0736 C   0  0  0  0  0  0  0  0  0  0  0  0
   14.5869  -31.2544  -14.5094 C   0  0  0  0  0  0  0  0  0  0  0  0
   17.6078  -33.8504  -14.3820 C   0  0  0  0  0  0  0  0  0  0  0  0
   12.2195  -31.6519  -13.6689 C   0  0  0  0  0  0  0  0  0  0  0  0
   17.5017  -34.9034  -15.5194 C   0  0  0  0  0  0  0  0  0  0  0  0
   16.3470  -35.9044  -15.2533 C   0  0  0  0  0  0  0  0  0  0  0  0
   13.3605  -32.1782  -14.5545 C   0  0  0  0  0  0  0  0  0  0  0  0
   18.4138  -32.6032  -14.7281 C   0  0  0  0  0  0  0  0  0  0  0  0
   19.6044  -32.3739  -13.7605 C   0  0  0  0  0  0  0  0  0  0  0  0
   10.9821  -32.5520  -13.7785 C   0  0  0  0  0  0  0  0  0  0  0  0
   15.8845  -32.2095  -16.5939 C   0  0  0  0  0  0  0  0  0  0  0  0
   17.1788  -31.7313  -14.3986 C   0  0  0  0  0  0  0  0  0  0  0  0
   17.6046  -38.0300  -16.0772 C   0  0  0  0  0  0  0  0  0  0  0  0
   17.8339  -38.5744  -14.6600 C   0  0  0  0  0  0  0  0  0  0  0  0
   17.4987  -39.2143  -17.0517 C   0  0  0  0  0  0  0  0  0  0  0  0
   16.3415  -37.1558  -16.1651 C   0  0  0  0  0  0  0  0  0  0  0  0
   20.5649  -31.2222  -14.1759 C   0  0  0  0  0  0  0  0  0  0  0  0
   19.8389  -29.8843  -14.3009 C   0  0  0  0  0  0  0  0  0  0  0  0
   21.3663  -31.5324  -15.4377 C   0  0  0  0  0  0  0  0  0  0  0  0
  2  1  1  0
  3  2  1  0
  4  1  1  0
  6  4  1  0
  7  6  1  0
  8  3  1  0
  8  5  1  0
  9  4  1  0
 10  9  1  0
 11  5  1  0
 12  2  1  0
 13  1  1  0
 13  2  1  0
 13  9  1  0
 15 14  1  0
 16 14  1  0
 17  7  1  0
 17 14  1  0
 18 10  1  0
 19 18  1  0
 20 18  1  0
M  END
$$$$
