
     RDKit          2D

 26 29  0  0  0  0  0  0  0  0999 V2000
    0.3530   -7.4095    0.0000 C   0  0  0  0  0  0  0  0  0  0  0  0
    1.6520   -6.6595    0.0000 N   0  0  0  0  0  0  0  0  0  0  0  0
    1.6520   -5.1595    0.0000 C   0  0  0  0  0  0  0  0  0  0  0  0
    1.6520   -3.6595    0.0000 C   0  0  0  0  0  0  0  0  0  0  0  0
    1.6520   -2.1595    0.0000 C   0  0  0  0  0  0  0  0  0  0  0  0
    3.1292   -1.8991    0.0000 C   0  0  0  0  0  0  0  0  0  0  0  0
    2.1651   -0.7500    0.0000 C   0  0  0  0  0  0  0  0  0  0  0  0
    0.8660    0.0000    0.0000 C   0  0  0  0  0  0  0  0  0  0  0  0
   -0.4330    0.7500    0.0000 C   0  0  0  0  0  0  0  0  0  0  0  0
   -0.4330   -0.7500    0.0000 C   0  0  0  0  0  0  0  0  0  0  0  0
    0.8660    1.5000    0.0000 C   0  0  0  0  0  0  0  0  0  0  0  0
   -0.9460   -8.1595    0.0000 H   0  0  0  0  0  0  0  0  0  0  0  0
    1.1030   -8.7086    0.0000 H   0  0  0  0  0  0  0  0  0  0  0  0
   -0.3970   -6.1105    0.0000 H   0  0  0  0  0  0  0  0  0  0  0  0
    2.9511   -7.4095    0.0000 H   0  0  0  0  0  0  0  0  0  0  0  0
    3.1520   -5.1595    0.0000 H   0  0  0  0  0  0  0  0  0  0  0  0
    0.1520   -5.1595    0.0000 H   0  0  0  0  0  0  0  0  0  0  0  0
    0.1520   -3.6595    0.0000 H   0  0  0  0  0  0  0  0  0  0  0  0
    2.9920   -3.8241    0.0000 H   0  0  0  0  0  0  0  0  0  0  0  0
    0.1748   -1.8991    0.0000 H   0  0  0  0  0  0  0  0  0  0  0  0
    4.4283   -1.1491    0.0000 H   0  0  0  0  0  0  0  0  0  0  0  0
    3.7422   -3.1019    0.0000 H   0  0  0  0  0  0  0  0  0  0  0  0
    3.1292    0.3991    0.0000 H   0  0  0  0  0  0  0  0  0  0  0  0
   -1.7321    1.5000    0.0000 H   0  0  0  0  0  0  0  0  0  0  0  0
   -1.1830   -2.0490    0.0000 H   0  0  0  0  0  0  0  0  0  0  0  0
    1.6160    2.7990    0.0000 H   0  0  0  0  0  0  0  0  0  0  0  0
  1  2  1  0
  2  3  1  0
  3  4  1  0
  4  5  1  0
  5  6  1  0
  6  7  1  0
  7  8  1  0
  8  9  1  0
  9 10  1  0
 10 11  1  0
  7  5  1  0
 10  8  1  0
 11  8  1  0
 11  9  1  0
  1 12  1  0
  1 13  1  0
  1 14  1  0
  2 15  1  0
  3 16  1  0
  3 17  1  0
  4 18  1  0
  4 19  1  0
  5 20  1  0
  6 21  1  0
  6 22  1  0
  7 23  1  0
  9 24  1  0
 10 25  1  0
 11 26  1  0
M  END
$$$$
