
     RDKit          2D

 62 70  0  0  0  0  0  0  0  0999 V2000
   -3.6138    8.2398    0.0000 O   0  0  0  0  0  0  0  0  0  0  0  0
   -3.9525    7.5182    0.0000 C   0  0  0  0  0  0  0  0  0  0  0  0
   -5.4491    7.4173    0.0000 O   0  0  0  0  0  0  0  0  0  0  0  0
   -5.8156    5.9628    0.0000 C   0  0  0  0  0  0  0  0  0  0  0  0
   -4.5456    5.1647    0.0000 N   0  0  0  0  0  0  0  0  0  0  0  0
   -3.3941    6.1260    0.0000 C   0  0  0  0  0  0  0  0  0  0  0  0
   -2.0679    6.8269    0.0000 C   0  0  0  0  0  0  0  0  0  0  0  0
   -2.1240    8.3259    0.0000 C   0  0  0  0  0  0  0  0  0  0  0  0
   -0.9870    9.3043    0.0000 C   0  0  0  0  0  0  0  0  0  0  0  0
    0.4868    9.0255    0.0000 C   0  0  0  0  0  0  0  0  0  0  0  0
    1.1877    7.6993    0.0000 C   0  0  0  0  0  0  0  0  0  0  0  0
    0.5879    6.3244    0.0000 C   0  0  0  0  0  0  0  0  0  0  0  0
   -0.8610    5.9362    0.0000 C   0  0  0  0  0  0  0  0  0  0  0  0
    2.0837    6.2123    0.0000 C   0  0  0  0  0  0  0  0  0  0  0  0
    1.9716    4.7165    0.0000 C   0  0  0  0  0  0  0  0  0  0  0  0
    1.8595    3.2207    0.0000 C   0  0  0  0  0  0  0  0  0  0  0  0
    2.7045    1.9814    0.0000 C   0  0  0  0  0  0  0  0  0  0  0  0
    2.2623    0.5480    0.0000 C   0  0  0  0  0  0  0  0  0  0  0  0
    0.8660    0.0000    0.0000 C   0  0  0  0  0  0  0  0  0  0  0  0
   -0.4330    0.7500    0.0000 C   0  0  0  0  0  0  0  0  0  0  0  0
   -0.6566    2.2332    0.0000 C   0  0  0  0  0  0  0  0  0  0  0  0
    0.3637    3.3328    0.0000 C   0  0  0  0  0  0  0  0  0  0  0  0
    0.4758    4.8286    0.0000 C   0  0  0  0  0  0  0  0  0  0  0  0
   -1.7321    0.0000    0.0000 C   0  0  0  0  0  0  0  0  0  0  0  0
   -3.0311   -0.7500    0.0000 C   0  0  0  0  0  0  0  0  0  0  0  0
   -3.0311   -2.2500    0.0000 C   0  0  0  0  0  0  0  0  0  0  0  0
   -1.7321   -3.0000    0.0000 C   0  0  0  0  0  0  0  0  0  0  0  0
   -0.4330   -3.7500    0.0000 C   0  0  0  0  0  0  0  0  0  0  0  0
   -0.4330   -2.2500    0.0000 N   0  0  0  0  0  0  0  0  0  0  0  0
   -0.4330   -0.7500    0.0000 C   0  0  0  0  0  0  0  0  0  0  0  0
   -6.4766    4.6162    0.0000 H   0  0  0  0  0  0  0  0  0  0  0  0
   -7.2239    6.4793    0.0000 H   0  0  0  0  0  0  0  0  0  0  0  0
   -4.4446    3.6681    0.0000 H   0  0  0  0  0  0  0  0  0  0  0  0
   -2.7165    4.7878    0.0000 H   0  0  0  0  0  0  0  0  0  0  0  0
   -2.8103    8.7314    0.0000 H   0  0  0  0  0  0  0  0  0  0  0  0
   -1.3753   10.7532    0.0000 H   0  0  0  0  0  0  0  0  0  0  0  0
    1.3775   10.2323    0.0000 H   0  0  0  0  0  0  0  0  0  0  0  0
    2.3247    8.6777    0.0000 H   0  0  0  0  0  0  0  0  0  0  0  0
    2.5743    7.1271    0.0000 H   0  0  0  0  0  0  0  0  0  0  0  0
   -0.5018    4.4798    0.0000 H   0  0  0  0  0  0  0  0  0  0  0  0
   -1.8702    4.8265    0.0000 H   0  0  0  0  0  0  0  0  0  0  0  0
    3.5795    6.1002    0.0000 H   0  0  0  0  0  0  0  0  0  0  0  0
    2.1958    7.7081    0.0000 H   0  0  0  0  0  0  0  0  0  0  0  0
    3.4674    4.6044    0.0000 H   0  0  0  0  0  0  0  0  0  0  0  0
    3.2502    3.7827    0.0000 H   0  0  0  0  0  0  0  0  0  0  0  0
    3.8512    2.9484    0.0000 H   0  0  0  0  0  0  0  0  0  0  0  0
    4.0852    1.3953    0.0000 H   0  0  0  0  0  0  0  0  0  0  0  0
    3.7333    0.2544    0.0000 H   0  0  0  0  0  0  0  0  0  0  0  0
    2.4859   -0.9352    0.0000 H   0  0  0  0  0  0  0  0  0  0  0  0
    1.5169   -1.3515    0.0000 H   0  0  0  0  0  0  0  0  0  0  0  0
   -2.0529    1.6852    0.0000 H   0  0  0  0  0  0  0  0  0  0  0  0
   -1.6463    3.3604    0.0000 H   0  0  0  0  0  0  0  0  0  0  0  0
   -0.9278    4.0958    0.0000 H   0  0  0  0  0  0  0  0  0  0  0  0
   -1.0200    4.9407    0.0000 H   0  0  0  0  0  0  0  0  0  0  0  0
   -0.6900   -1.0790    0.0000 H   0  0  0  0  0  0  0  0  0  0  0  0
   -4.5083   -1.0105    0.0000 H   0  0  0  0  0  0  0  0  0  0  0  0
   -3.5441    0.6595    0.0000 H   0  0  0  0  0  0  0  0  0  0  0  0
   -3.5441   -3.6595    0.0000 H   0  0  0  0  0  0  0  0  0  0  0  0
   -4.5083   -1.9895    0.0000 H   0  0  0  0  0  0  0  0  0  0  0  0
   -2.4821   -4.2990    0.0000 H   0  0  0  0  0  0  0  0  0  0  0  0
   -0.9460   -5.1595    0.0000 H   0  0  0  0  0  0  0  0  0  0  0  0
    1.0442   -4.0105    0.0000 H   0  0  0  0  0  0  0  0  0  0  0  0
  1  2  2  0
  2  3  1  0
  3  4  1  0
  4  5  1  0
  5  6  1  0
  6  7  1  0
  7  8  2  0
  8  9  1  0
  9 10  2  0
 10 11  1  0
 12 11  1  6
 12 13  1  0
 12 14  1  0
 14 15  1  0
 15 16  1  0
 16 17  1  0
 17 18  1  0
 18 19  1  0
 19 20  1  0
 20 21  1  1
 21 22  1  0
 22 23  1  0
 20 24  1  0
 24 25  1  0
 25 26  1  0
 26 27  1  0
 27 28  1  0
 28 29  1  0
 30 29  1  1
  6  2  1  0
 13  7  1  0
 23 15  1  0
 30 24  1  0
 23 12  1  0
 29 27  1  0
 22 16  1  0
 30 19  1  0
 30 20  1  0
  4 31  1  0
  4 32  1  0
  5 33  1  0
  6 34  1  1
  8 35  1  0
  9 36  1  0
 10 37  1  0
 11 38  1  0
 11 39  1  0
 13 40  1  0
 13 41  1  0
 14 42  1  0
 14 43  1  0
 15 44  1  1
 16 45  1  1
 17 46  1  0
 17 47  1  0
 18 48  1  0
 18 49  1  0
 19 50  1  1
 21 51  1  0
 21 52  1  0
 22 53  1  1
 23 54  1  6
 24 55  1  6
 25 56  1  0
 25 57  1  0
 26 58  1  0
 26 59  1  0
 27 60  1  6
 28 61  1  0
 28 62  1  0
M  END
$$$$
