
     RDKit          2D

 45 47  0  0  0  0  0  0  0  0999 V2000
    4.6201    3.0111    0.0000 C   0  0  0  0  0  0  0  0  0  0  0  0
    3.5054    2.0074    0.0000 C   0  0  0  0  0  0  0  0  0  0  0  0
    2.3907    1.0037    0.0000 C   0  0  0  0  0  0  0  0  0  0  0  0
    1.9335    1.6567    0.0000 Cl  0  0  0  0  0  0  0  0  0  0  0  0
    1.2760    0.0000    0.0000 C   0  0  0  0  0  0  0  0  0  0  0  0
    0.3943    1.2135    0.0000 C   0  0  0  0  0  0  0  0  0  0  0  0
   -1.0323    0.7500    0.0000 C   0  0  0  0  0  0  0  0  0  0  0  0
   -1.0323   -0.7500    0.0000 C   0  0  0  0  0  0  0  0  0  0  0  0
   -1.3442   -2.2172    0.0000 C   0  0  0  0  0  0  0  0  0  0  0  0
   -1.6560   -3.6844    0.0000 C   0  0  0  0  0  0  0  0  0  0  0  0
   -3.1551   -3.6321    0.0000 C   0  0  0  0  0  0  0  0  0  0  0  0
   -4.4795   -4.3363    0.0000 C   0  0  0  0  0  0  0  0  0  0  0  0
   -3.7753   -5.6607    0.0000 C   0  0  0  0  0  0  0  0  0  0  0  0
   -3.0711   -6.9851    0.0000 C   0  0  0  0  0  0  0  0  0  0  0  0
   -2.4509   -4.9565    0.0000 C   0  0  0  0  0  0  0  0  0  0  0  0
    0.3943   -1.2135    0.0000 C   0  0  0  0  0  0  0  0  0  0  0  0
    1.6933   -1.9635    0.0000 C   0  0  0  0  0  0  0  0  0  0  0  0
   -0.2158   -2.5838    0.0000 O   0  0  0  0  0  0  0  0  0  0  0  0
    5.7348    4.0148    0.0000 H   0  0  0  0  0  0  0  0  0  0  0  0
    3.6164    4.1258    0.0000 H   0  0  0  0  0  0  0  0  0  0  0  0
    5.6238    1.8964    0.0000 H   0  0  0  0  0  0  0  0  0  0  0  0
    2.5017    3.1221    0.0000 H   0  0  0  0  0  0  0  0  0  0  0  0
    4.5091    0.8927    0.0000 H   0  0  0  0  0  0  0  0  0  0  0  0
    3.3944   -0.1110    0.0000 H   0  0  0  0  0  0  0  0  0  0  0  0
    2.5047   -0.8603    0.0000 H   0  0  0  0  0  0  0  0  0  0  0  0
   -0.2158    2.5838    0.0000 H   0  0  0  0  0  0  0  0  0  0  0  0
    1.0309    1.6933    0.0000 H   0  0  0  0  0  0  0  0  0  0  0  0
   -2.5241    0.5932    0.0000 H   0  0  0  0  0  0  0  0  0  0  0  0
   -1.3442    2.2172    0.0000 H   0  0  0  0  0  0  0  0  0  0  0  0
   -2.5241   -0.5932    0.0000 H   0  0  0  0  0  0  0  0  0  0  0  0
   -2.7624   -1.7288    0.0000 H   0  0  0  0  0  0  0  0  0  0  0  0
    0.0040   -2.8749    0.0000 H   0  0  0  0  0  0  0  0  0  0  0  0
   -0.2652   -4.2464    0.0000 H   0  0  0  0  0  0  0  0  0  0  0  0
   -3.6682   -2.2226    0.0000 H   0  0  0  0  0  0  0  0  0  0  0  0
   -5.8040   -5.0405    0.0000 H   0  0  0  0  0  0  0  0  0  0  0  0
   -5.1837   -3.0119    0.0000 H   0  0  0  0  0  0  0  0  0  0  0  0
   -5.0997   -6.3649    0.0000 H   0  0  0  0  0  0  0  0  0  0  0  0
   -2.3669   -8.3096    0.0000 H   0  0  0  0  0  0  0  0  0  0  0  0
   -4.3955   -7.6894    0.0000 H   0  0  0  0  0  0  0  0  0  0  0  0
   -1.6707   -6.4476    0.0000 H   0  0  0  0  0  0  0  0  0  0  0  0
   -1.3018   -5.9207    0.0000 H   0  0  0  0  0  0  0  0  0  0  0  0
    2.9924   -2.7135    0.0000 H   0  0  0  0  0  0  0  0  0  0  0  0
    1.1073   -3.3443    0.0000 H   0  0  0  0  0  0  0  0  0  0  0  0
    2.5961   -0.7656    0.0000 H   0  0  0  0  0  0  0  0  0  0  0  0
    0.5114   -3.8958    0.0000 H   0  0  0  0  0  0  0  0  0  0  0  0
  1  2  1  0
  2  3  1  0
  3  4  1  0
  3  5  1  0
  5  6  1  0
  6  7  1  0
  7  8  1  0
  8  9  1  0
  9 10  1  0
 10 11  1  0
 11 12  1  0
 12 13  1  0
 13 14  1  0
 13 15  1  0
  8 16  1  0
 16 17  1  0
 16 18  1  0
 16  5  1  0
 15 10  1  0
 15 11  1  0
  1 19  1  0
  1 20  1  0
  1 21  1  0
  2 22  1  0
  2 23  1  0
  3 24  1  0
  5 25  1  0
  6 26  1  0
  6 27  1  0
  7 28  1  0
  7 29  1  0
  8 30  1  0
  9 31  1  0
  9 32  1  0
 10 33  1  0
 11 34  1  0
 12 35  1  0
 12 36  1  0
 13 37  1  0
 14 38  1  0
 14 39  1  0
 14 40  1  0
 15 41  1  0
 17 42  1  0
 17 43  1  0
 17 44  1  0
 18 45  1  0
M  END
$$$$
