
     RDKit          2D

 28 29  0  0  0  0  0  0  0  0999 V2000
    0.6475   -6.3567    0.0000 C   0  0  0  0  0  0  0  0  0  0  0  0
    1.1605   -4.9472    0.0000 C   0  0  0  0  0  0  0  0  0  0  0  0
    0.1963   -3.7981    0.0000 C   0  0  0  0  0  0  0  0  0  0  0  0
    1.3454   -2.8340    0.0000 O   0  0  0  0  0  0  0  0  0  0  0  0
   -0.7679   -2.6491    0.0000 C   0  0  0  0  0  0  0  0  0  0  0  0
   -1.7321   -1.5000    0.0000 C   0  0  0  0  0  0  0  0  0  0  0  0
   -3.0311   -0.7500    0.0000 C   0  0  0  0  0  0  0  0  0  0  0  0
   -3.0311    0.7500    0.0000 C   0  0  0  0  0  0  0  0  0  0  0  0
   -1.7321    1.5000    0.0000 N   0  0  0  0  0  0  0  0  0  0  0  0
   -0.4330    0.7500    0.0000 C   0  0  0  0  0  0  0  0  0  0  0  0
    0.8660    0.0000    0.0000 C   0  0  0  0  0  0  0  0  0  0  0  0
   -0.4330   -0.7500    0.0000 N   0  0  0  0  0  0  0  0  0  0  0  0
    1.6116   -7.5058    0.0000 H   0  0  0  0  0  0  0  0  0  0  0  0
   -0.8297   -6.6172    0.0000 H   0  0  0  0  0  0  0  0  0  0  0  0
    2.6377   -4.6867    0.0000 H   0  0  0  0  0  0  0  0  0  0  0  0
   -0.9528   -4.7623    0.0000 H   0  0  0  0  0  0  0  0  0  0  0  0
    2.7549   -3.3470    0.0000 H   0  0  0  0  0  0  0  0  0  0  0  0
    0.3812   -1.6849    0.0000 H   0  0  0  0  0  0  0  0  0  0  0  0
   -1.9169   -3.6132    0.0000 H   0  0  0  0  0  0  0  0  0  0  0  0
   -2.6962   -2.6491    0.0000 H   0  0  0  0  0  0  0  0  0  0  0  0
   -3.5441   -2.1595    0.0000 H   0  0  0  0  0  0  0  0  0  0  0  0
   -4.5083   -0.4895    0.0000 H   0  0  0  0  0  0  0  0  0  0  0  0
   -4.5083    0.4895    0.0000 H   0  0  0  0  0  0  0  0  0  0  0  0
   -3.5441    2.1595    0.0000 H   0  0  0  0  0  0  0  0  0  0  0  0
   -1.7321    3.0000    0.0000 H   0  0  0  0  0  0  0  0  0  0  0  0
    0.3170    2.0490    0.0000 H   0  0  0  0  0  0  0  0  0  0  0  0
    1.8302    1.1491    0.0000 H   0  0  0  0  0  0  0  0  0  0  0  0
    1.8302   -1.1491    0.0000 H   0  0  0  0  0  0  0  0  0  0  0  0
  1  2  2  3
  2  3  1  0
  3  4  1  0
  3  5  1  0
  5  6  1  0
  6  7  1  0
  7  8  1  0
  8  9  1  0
  9 10  1  0
 10 11  1  0
 11 12  1  0
 12  6  1  0
 12 10  1  0
  1 13  1  0
  1 14  1  0
  2 15  1  0
  3 16  1  6
  4 17  1  0
  5 18  1  0
  5 19  1  0
  6 20  1  6
  7 21  1  0
  7 22  1  0
  8 23  1  0
  8 24  1  0
  9 25  1  0
 10 26  1  6
 11 27  1  0
 11 28  1  0
M  END
$$$$
