
     RDKit          2D

 18 22  0  0  0  0  0  0  0  0999 V2000
   -0.4330    2.2500    0.0000 O   0  0  0  0  0  0  0  0  0  0  0  0
   -0.4330    0.7500    0.0000 C   0  0  0  0  0  0  0  0  0  0  0  0
    0.8660    0.0000    0.0000 O   0  0  0  0  0  0  0  0  0  0  0  0
   -0.4330   -0.7500    0.0000 C   0  0  0  0  0  0  0  0  0  0  0  0
   -0.7449   -2.2172    0.0000 C   0  0  0  0  0  0  0  0  0  0  0  0
   -1.3550   -3.5875    0.0000 C   0  0  0  0  0  0  0  0  0  0  0  0
   -2.2367   -2.3740    0.0000 C   0  0  0  0  0  0  0  0  0  0  0  0
   -3.7284   -2.2172    0.0000 C   0  0  0  0  0  0  0  0  0  0  0  0
   -2.8468   -1.0037    0.0000 C   0  0  0  0  0  0  0  0  0  0  0  0
   -1.7321    0.0000    0.0000 C   0  0  0  0  0  0  0  0  0  0  0  0
    0.8660    3.0000    0.0000 H   0  0  0  0  0  0  0  0  0  0  0  0
    0.6817   -2.6807    0.0000 H   0  0  0  0  0  0  0  0  0  0  0  0
   -0.1114   -4.4263    0.0000 H   0  0  0  0  0  0  0  0  0  0  0  0
   -2.3970   -4.6665    0.0000 H   0  0  0  0  0  0  0  0  0  0  0  0
   -4.1419   -3.6591    0.0000 H   0  0  0  0  0  0  0  0  0  0  0  0
   -5.0766   -1.5597    0.0000 H   0  0  0  0  0  0  0  0  0  0  0  0
   -3.9615   -0.0000    0.0000 H   0  0  0  0  0  0  0  0  0  0  0  0
   -2.6137    1.2135    0.0000 H   0  0  0  0  0  0  0  0  0  0  0  0
  1  2  1  0
  2  3  1  0
  3  4  1  0
  4  5  1  0
  5  6  1  0
  6  7  1  0
  7  8  1  0
  8  9  1  0
  9 10  1  0
  4  2  1  0
  7  5  1  0
 10  2  1  0
 10  4  1  0
  9  7  1  0
  1 11  1  0
  5 12  1  0
  6 13  1  0
  6 14  1  0
  8 15  1  0
  8 16  1  0
  9 17  1  0
 10 18  1  0
M  END
$$$$
