
     RDKit          2D

103109  0  0  0  0  0  0  0  0999 V2000
   -1.0216   -1.4309    0.0000 C   0  0  0  0  0  0  0  0  0  0  0  0
   -2.1707   -0.4667    0.0000 C   0  0  0  0  0  0  0  0  0  0  0  0
   -3.5802   -0.9798    0.0000 C   0  0  0  0  0  0  0  0  0  0  0  0
   -1.9102    1.0105    0.0000 C   0  0  0  0  0  0  0  0  0  0  0  0
   -1.6498    2.4877    0.0000 C   0  0  0  0  0  0  0  0  0  0  0  0
   -1.9102    3.9649    0.0000 C   0  0  0  0  0  0  0  0  0  0  0  0
   -3.0593    3.0007    0.0000 C   0  0  0  0  0  0  0  0  0  0  0  0
   -4.2084    3.9649    0.0000 C   0  0  0  0  0  0  0  0  0  0  0  0
   -5.3574    4.9291    0.0000 C   0  0  0  0  0  0  0  0  0  0  0  0
   -6.5065    5.8933    0.0000 C   0  0  0  0  0  0  0  0  0  0  0  0
   -7.6556    4.9291    0.0000 F   0  0  0  0  0  0  0  0  0  0  0  0
   -7.2565    7.1923    0.0000 C   0  0  0  0  0  0  0  0  0  0  0  0
   -5.7565    7.1923    0.0000 C   0  0  0  0  0  0  0  0  0  0  0  0
   -0.4330    0.7500    0.0000 C   0  0  0  0  0  0  0  0  0  0  0  0
    0.8660    0.0000    0.0000 N   0  0  0  0  0  0  0  0  0  0  0  0
   -0.4330   -0.7500    0.0000 C   0  0  0  0  0  0  0  0  0  0  0  0
   -0.4330   -2.2500    0.0000 C   0  0  0  0  0  0  0  0  0  0  0  0
    1.0442   -2.5105    0.0000 C   0  0  0  0  0  0  0  0  0  0  0  0
    2.5214   -2.7709    0.0000 C   0  0  0  0  0  0  0  0  0  0  0  0
    3.9986   -3.0314    0.0000 C   0  0  0  0  0  0  0  0  0  0  0  0
    2.2609   -4.2482    0.0000 C   0  0  0  0  0  0  0  0  0  0  0  0
   -1.7321   -1.5000    0.0000 C   0  0  0  0  0  0  0  0  0  0  0  0
   -2.6137   -2.7135    0.0000 N   0  0  0  0  0  0  0  0  0  0  0  0
   -4.0403   -2.2500    0.0000 C   0  0  0  0  0  0  0  0  0  0  0  0
   -4.3522   -3.7172    0.0000 C   0  0  0  0  0  0  0  0  0  0  0  0
   -5.7788   -4.1807    0.0000 C   0  0  0  0  0  0  0  0  0  0  0  0
   -6.0906   -5.6480    0.0000 C   0  0  0  0  0  0  0  0  0  0  0  0
   -6.8855   -6.9200    0.0000 C   0  0  0  0  0  0  0  0  0  0  0  0
   -7.5897   -5.5956    0.0000 C   0  0  0  0  0  0  0  0  0  0  0  0
   -9.0163   -6.0591    0.0000 C   0  0  0  0  0  0  0  0  0  0  0  0
   -4.0403   -0.7500    0.0000 C   0  0  0  0  0  0  0  0  0  0  0  0
   -2.6137   -0.2865    0.0000 C   0  0  0  0  0  0  0  0  0  0  0  0
   -3.2238    1.0838    0.0000 C   0  0  0  0  0  0  0  0  0  0  0  0
   -3.3285    2.5802    0.0000 C   0  0  0  0  0  0  0  0  0  0  0  0
   -4.8203    2.7370    0.0000 C   0  0  0  0  0  0  0  0  0  0  0  0
   -1.9803    1.9226    0.0000 C   0  0  0  0  0  0  0  0  0  0  0  0
   -1.0986    3.1362    0.0000 C   0  0  0  0  0  0  0  0  0  0  0  0
   -0.2169    4.3497    0.0000 N   0  0  0  0  0  0  0  0  0  0  0  0
    1.2749    4.1929    0.0000 C   0  0  0  0  0  0  0  0  0  0  0  0
    2.7666    4.0361    0.0000 C   0  0  0  0  0  0  0  0  0  0  0  0
    4.2584    3.8793    0.0000 C   0  0  0  0  0  0  0  0  0  0  0  0
    5.7502    3.7225    0.0000 C   0  0  0  0  0  0  0  0  0  0  0  0
    6.3603    2.3522    0.0000 O   0  0  0  0  0  0  0  0  0  0  0  0
   -1.4602   -2.8654    0.0000 H   0  0  0  0  0  0  0  0  0  0  0  0
    0.3879   -0.9179    0.0000 H   0  0  0  0  0  0  0  0  0  0  0  0
   -4.9898   -1.4928    0.0000 H   0  0  0  0  0  0  0  0  0  0  0  0
   -4.0933    0.4298    0.0000 H   0  0  0  0  0  0  0  0  0  0  0  0
   -3.4235   -2.4716    0.0000 H   0  0  0  0  0  0  0  0  0  0  0  0
   -3.3447    1.4491    0.0000 H   0  0  0  0  0  0  0  0  0  0  0  0
   -0.1498    2.4877    0.0000 H   0  0  0  0  0  0  0  0  0  0  0  0
   -0.6667    4.8038    0.0000 H   0  0  0  0  0  0  0  0  0  0  0  0
   -2.4963    5.3457    0.0000 H   0  0  0  0  0  0  0  0  0  0  0  0
   -3.9620    1.8028    0.0000 H   0  0  0  0  0  0  0  0  0  0  0  0
   -3.3914    5.2229    0.0000 H   0  0  0  0  0  0  0  0  0  0  0  0
   -5.4219    3.0833    0.0000 H   0  0  0  0  0  0  0  0  0  0  0  0
   -4.2604    5.9520    0.0000 H   0  0  0  0  0  0  0  0  0  0  0  0
   -6.4545    3.9061    0.0000 H   0  0  0  0  0  0  0  0  0  0  0  0
   -8.6660    6.6793    0.0000 H   0  0  0  0  0  0  0  0  0  0  0  0
   -7.5170    8.6695    0.0000 H   0  0  0  0  0  0  0  0  0  0  0  0
   -5.4960    8.6695    0.0000 H   0  0  0  0  0  0  0  0  0  0  0  0
   -4.2949    6.8549    0.0000 H   0  0  0  0  0  0  0  0  0  0  0  0
    0.4058    1.9935    0.0000 H   0  0  0  0  0  0  0  0  0  0  0  0
    2.3660    0.0000    0.0000 H   0  0  0  0  0  0  0  0  0  0  0  0
   -0.7704   -3.7116    0.0000 H   0  0  0  0  0  0  0  0  0  0  0  0
    0.6056   -3.9449    0.0000 H   0  0  0  0  0  0  0  0  0  0  0  0
    1.3047   -1.0333    0.0000 H   0  0  0  0  0  0  0  0  0  0  0  0
    2.7819   -1.2937    0.0000 H   0  0  0  0  0  0  0  0  0  0  0  0
    5.4758   -3.2919    0.0000 H   0  0  0  0  0  0  0  0  0  0  0  0
    3.9202   -4.5294    0.0000 H   0  0  0  0  0  0  0  0  0  0  0  0
    4.2591   -1.5542    0.0000 H   0  0  0  0  0  0  0  0  0  0  0  0
    2.0005   -5.7254    0.0000 H   0  0  0  0  0  0  0  0  0  0  0  0
    3.6954   -4.6868    0.0000 H   0  0  0  0  0  0  0  0  0  0  0  0
    0.7630   -4.1697    0.0000 H   0  0  0  0  0  0  0  0  0  0  0  0
   -2.1502   -4.1401    0.0000 H   0  0  0  0  0  0  0  0  0  0  0  0
   -5.5401   -2.2762    0.0000 H   0  0  0  0  0  0  0  0  0  0  0  0
   -3.2375   -4.7209    0.0000 H   0  0  0  0  0  0  0  0  0  0  0  0
   -6.8935   -3.1771    0.0000 H   0  0  0  0  0  0  0  0  0  0  0  0
   -4.6999   -6.2099    0.0000 H   0  0  0  0  0  0  0  0  0  0  0  0
   -5.7708   -7.9237    0.0000 H   0  0  0  0  0  0  0  0  0  0  0  0
   -7.9461   -7.9807    0.0000 H   0  0  0  0  0  0  0  0  0  0  0  0
   -7.7985   -4.1102    0.0000 H   0  0  0  0  0  0  0  0  0  0  0  0
  -10.4429   -6.5227    0.0000 H   0  0  0  0  0  0  0  0  0  0  0  0
   -9.4798   -4.6326    0.0000 H   0  0  0  0  0  0  0  0  0  0  0  0
   -8.7301   -7.5316    0.0000 H   0  0  0  0  0  0  0  0  0  0  0  0
   -5.5401   -0.7238    0.0000 H   0  0  0  0  0  0  0  0  0  0  0  0
   -4.8574    0.5079    0.0000 H   0  0  0  0  0  0  0  0  0  0  0  0
   -1.2330    0.2996    0.0000 H   0  0  0  0  0  0  0  0  0  0  0  0
   -4.7127    0.9011    0.0000 H   0  0  0  0  0  0  0  0  0  0  0  0
   -3.0939    4.0617    0.0000 H   0  0  0  0  0  0  0  0  0  0  0  0
   -6.3200    2.7108    0.0000 H   0  0  0  0  0  0  0  0  0  0  0  0
   -5.0291    4.2224    0.0000 H   0  0  0  0  0  0  0  0  0  0  0  0
   -5.3334    1.3275    0.0000 H   0  0  0  0  0  0  0  0  0  0  0  0
   -0.6208    1.2888    0.0000 H   0  0  0  0  0  0  0  0  0  0  0  0
   -1.9155    4.3942    0.0000 H   0  0  0  0  0  0  0  0  0  0  0  0
    0.2922    2.5743    0.0000 H   0  0  0  0  0  0  0  0  0  0  0  0
   -0.8270    5.7200    0.0000 H   0  0  0  0  0  0  0  0  0  0  0  0
    1.1181    2.7011    0.0000 H   0  0  0  0  0  0  0  0  0  0  0  0
    1.4317    5.6847    0.0000 H   0  0  0  0  0  0  0  0  0  0  0  0
    2.6099    2.5443    0.0000 H   0  0  0  0  0  0  0  0  0  0  0  0
    2.9234    5.5279    0.0000 H   0  0  0  0  0  0  0  0  0  0  0  0
    4.1016    2.3875    0.0000 H   0  0  0  0  0  0  0  0  0  0  0  0
    4.4152    5.3711    0.0000 H   0  0  0  0  0  0  0  0  0  0  0  0
    6.6319    4.9360    0.0000 H   0  0  0  0  0  0  0  0  0  0  0  0
  1  2  2  3
  2  3  1  0
  2  4  1  0
  4  5  1  0
  5  6  1  0
  6  7  1  0
  7  8  1  0
  8  9  1  0
  9 10  1  0
 10 11  1  0
 10 12  1  0
 12 13  1  0
  4 14  1  0
 14 15  1  0
 16 15  1  1
 16 17  1  0
 17 18  1  0
 18 19  1  0
 19 20  1  0
 19 21  1  0
 17 22  1  0
 22 23  1  0
 23 24  1  0
 24 25  1  0
 25 26  2  3
 26 27  1  0
 27 28  1  0
 28 29  1  0
 29 30  1  0
 24 31  1  0
 31 32  1  0
 32 33  1  0
 33 34  1  0
 34 35  1  0
 34 36  1  0
 36 37  1  0
 37 38  1  0
 38 39  1  0
 39 40  1  0
 40 41  1  0
 41 42  1  0
 42 43  2  0
  7  5  1  0
 13 10  1  0
 16 14  1  0
 32 22  1  0
 36 33  1  0
 22 16  1  0
 29 27  1  0
  1 44  1  0
  1 45  1  0
  3 46  1  0
  3 47  1  0
  3 48  1  0
  4 49  1  6
  5 50  1  1
  6 51  1  0
  6 52  1  0
  7 53  1  6
  8 54  1  0
  8 55  1  0
  9 56  1  0
  9 57  1  0
 12 58  1  0
 12 59  1  0
 13 60  1  0
 13 61  1  0
 14 62  1  6
 15 63  1  0
 17 64  1  1
 18 65  1  0
 18 66  1  0
 19 67  1  0
 20 68  1  0
 20 69  1  0
 20 70  1  0
 21 71  1  0
 21 72  1  0
 21 73  1  0
 23 74  1  0
 24 75  1  6
 25 76  1  0
 26 77  1  0
 27 78  1  6
 28 79  1  0
 28 80  1  0
 29 81  1  6
 30 82  1  0
 30 83  1  0
 30 84  1  0
 31 85  1  0
 31 86  1  0
 32 87  1  1
 33 88  1  6
 34 89  1  1
 35 90  1  0
 35 91  1  0
 35 92  1  0
 36 93  1  6
 37 94  1  0
 37 95  1  0
 38 96  1  0
 39 97  1  0
 39 98  1  0
 40 99  1  0
 40100  1  0
 41101  1  0
 41102  1  0
 42103  1  0
M  END
$$$$
