
     RDKit          2D

101108  0  0  0  0  0  0  0  0999 V2000
   -7.7198   -2.3166    0.0000 C   0  0  0  0  0  0  0  0  0  0  0  0
   -6.2366   -2.5402    0.0000 C   0  0  0  0  0  0  0  0  0  0  0  0
   -6.1245   -4.0360    0.0000 C   0  0  0  0  0  0  0  0  0  0  0  0
   -5.3745   -5.3350    0.0000 C   0  0  0  0  0  0  0  0  0  0  0  0
   -4.1351   -6.1800    0.0000 C   0  0  0  0  0  0  0  0  0  0  0  0
   -2.6519   -6.4035    0.0000 C   0  0  0  0  0  0  0  0  0  0  0  0
   -3.4019   -7.7026    0.0000 C   0  0  0  0  0  0  0  0  0  0  0  0
   -4.1519   -9.0016    0.0000 C   0  0  0  0  0  0  0  0  0  0  0  0
   -4.9019  -10.3007    0.0000 C   0  0  0  0  0  0  0  0  0  0  0  0
   -1.2185   -5.9614    0.0000 C   0  0  0  0  0  0  0  0  0  0  0  0
   -1.3306   -7.4572    0.0000 C   0  0  0  0  0  0  0  0  0  0  0  0
   -0.1189   -4.9412    0.0000 C   0  0  0  0  0  0  0  0  0  0  0  0
    0.4291   -3.5448    0.0000 O   0  0  0  0  0  0  0  0  0  0  0  0
    0.3170   -2.0490    0.0000 C   0  0  0  0  0  0  0  0  0  0  0  0
    1.6160   -1.2990    0.0000 C   0  0  0  0  0  0  0  0  0  0  0  0
    2.9151   -0.5490    0.0000 C   0  0  0  0  0  0  0  0  0  0  0  0
    2.9151    0.9510    0.0000 C   0  0  0  0  0  0  0  0  0  0  0  0
    4.2141   -1.2990    0.0000 N   0  0  0  0  0  0  0  0  0  0  0  0
    5.5131   -0.5490    0.0000 C   0  0  0  0  0  0  0  0  0  0  0  0
    4.2141   -2.7990    0.0000 C   0  0  0  0  0  0  0  0  0  0  0  0
    4.2141   -4.2990    0.0000 C   0  0  0  0  0  0  0  0  0  0  0  0
    0.8660    0.0000    0.0000 C   0  0  0  0  0  0  0  0  0  0  0  0
   -0.4330    0.7500    0.0000 C   0  0  0  0  0  0  0  0  0  0  0  0
   -1.1830    2.0490    0.0000 O   0  0  0  0  0  0  0  0  0  0  0  0
   -1.6724    0.0950    0.0000 C   0  0  0  0  0  0  0  0  0  0  0  0
   -3.1556    0.3185    0.0000 C   0  0  0  0  0  0  0  0  0  0  0  0
   -2.4056    1.6176    0.0000 C   0  0  0  0  0  0  0  0  0  0  0  0
   -1.6556    2.9166    0.0000 C   0  0  0  0  0  0  0  0  0  0  0  0
   -0.1668    3.0995    0.0000 O   0  0  0  0  0  0  0  0  0  0  0  0
   -2.4056    4.2157    0.0000 C   0  0  0  0  0  0  0  0  0  0  0  0
   -3.1556    5.5147    0.0000 C   0  0  0  0  0  0  0  0  0  0  0  0
   -4.1593    6.6294    0.0000 C   0  0  0  0  0  0  0  0  0  0  0  0
   -3.4093    7.9285    0.0000 C   0  0  0  0  0  0  0  0  0  0  0  0
   -1.9421    7.6166    0.0000 C   0  0  0  0  0  0  0  0  0  0  0  0
   -1.7853    6.1248    0.0000 N   0  0  0  0  0  0  0  0  0  0  0  0
   -4.5890   -0.1236    0.0000 C   0  0  0  0  0  0  0  0  0  0  0  0
   -5.6886   -1.1438    0.0000 C   0  0  0  0  0  0  0  0  0  0  0  0
   -6.0223    0.3185    0.0000 C   0  0  0  0  0  0  0  0  0  0  0  0
   -5.5802    1.7519    0.0000 C   0  0  0  0  0  0  0  0  0  0  0  0
   -4.4806    2.7722    0.0000 C   0  0  0  0  0  0  0  0  0  0  0  0
   -5.2944    4.0322    0.0000 C   0  0  0  0  0  0  0  0  0  0  0  0
   -4.1468    1.3098    0.0000 C   0  0  0  0  0  0  0  0  0  0  0  0
   -0.4330   -0.7500    0.0000 C   0  0  0  0  0  0  0  0  0  0  0  0
   -8.6550   -3.4893    0.0000 H   0  0  0  0  0  0  0  0  0  0  0  0
   -8.2678   -0.9203    0.0000 H   0  0  0  0  0  0  0  0  0  0  0  0
   -7.5578   -3.5938    0.0000 H   0  0  0  0  0  0  0  0  0  0  0  0
   -6.9054   -4.8014    0.0000 H   0  0  0  0  0  0  0  0  0  0  0  0
   -6.4278   -5.6286    0.0000 H   0  0  0  0  0  0  0  0  0  0  0  0
   -5.6754   -6.1681    0.0000 H   0  0  0  0  0  0  0  0  0  0  0  0
   -4.7938   -6.6290    0.0000 H   0  0  0  0  0  0  0  0  0  0  0  0
   -4.1594   -7.3947    0.0000 H   0  0  0  0  0  0  0  0  0  0  0  0
   -2.1467   -7.5085    0.0000 H   0  0  0  0  0  0  0  0  0  0  0  0
   -2.2039   -8.6053    0.0000 H   0  0  0  0  0  0  0  0  0  0  0  0
   -4.6446   -7.1751    0.0000 H   0  0  0  0  0  0  0  0  0  0  0  0
   -2.8528   -9.7516    0.0000 H   0  0  0  0  0  0  0  0  0  0  0  0
   -5.4509   -8.2516    0.0000 H   0  0  0  0  0  0  0  0  0  0  0  0
   -5.6519  -11.5997    0.0000 H   0  0  0  0  0  0  0  0  0  0  0  0
   -6.2009   -9.5507    0.0000 H   0  0  0  0  0  0  0  0  0  0  0  0
   -3.6028  -11.0507    0.0000 H   0  0  0  0  0  0  0  0  0  0  0  0
    0.0435   -6.7721    0.0000 H   0  0  0  0  0  0  0  0  0  0  0  0
   -1.2595   -8.9555    0.0000 H   0  0  0  0  0  0  0  0  0  0  0  0
    0.1652   -7.5693    0.0000 H   0  0  0  0  0  0  0  0  0  0  0  0
   -2.8091   -7.7104    0.0000 H   0  0  0  0  0  0  0  0  0  0  0  0
    0.5952   -6.2603    0.0000 H   0  0  0  0  0  0  0  0  0  0  0  0
    1.3811   -4.9412    0.0000 H   0  0  0  0  0  0  0  0  0  0  0  0
    1.5478   -2.9064    0.0000 H   0  0  0  0  0  0  0  0  0  0  0  0
    2.3660   -2.5981    0.0000 H   0  0  0  0  0  0  0  0  0  0  0  0
    4.2141    1.7010    0.0000 H   0  0  0  0  0  0  0  0  0  0  0  0
    1.7171    1.8537    0.0000 H   0  0  0  0  0  0  0  0  0  0  0  0
    6.8122    0.2010    0.0000 H   0  0  0  0  0  0  0  0  0  0  0  0
    6.2631   -1.8481    0.0000 H   0  0  0  0  0  0  0  0  0  0  0  0
    4.7631    0.7500    0.0000 H   0  0  0  0  0  0  0  0  0  0  0  0
    2.7253   -2.9819    0.0000 H   0  0  0  0  0  0  0  0  0  0  0  0
    5.7141   -2.7990    0.0000 H   0  0  0  0  0  0  0  0  0  0  0  0
    4.2141   -5.7990    0.0000 H   0  0  0  0  0  0  0  0  0  0  0  0
    5.7029   -4.4819    0.0000 H   0  0  0  0  0  0  0  0  0  0  0  0
    5.7029   -4.1162    0.0000 H   0  0  0  0  0  0  0  0  0  0  0  0
    1.7895    1.1820    0.0000 H   0  0  0  0  0  0  0  0  0  0  0  0
   -0.2803    3.2470    0.0000 H   0  0  0  0  0  0  0  0  0  0  0  0
   -1.2987    1.5477    0.0000 H   0  0  0  0  0  0  0  0  0  0  0  0
   -3.7793    1.6827    0.0000 H   0  0  0  0  0  0  0  0  0  0  0  0
   -0.9241    1.3830    0.0000 H   0  0  0  0  0  0  0  0  0  0  0  0
   -3.7047    2.3676    0.0000 H   0  0  0  0  0  0  0  0  0  0  0  0
   -1.0248    4.8017    0.0000 H   0  0  0  0  0  0  0  0  0  0  0  0
   -3.6035    3.3129    0.0000 H   0  0  0  0  0  0  0  0  0  0  0  0
   -4.2526    4.4917    0.0000 H   0  0  0  0  0  0  0  0  0  0  0  0
   -5.1630    5.5147    0.0000 H   0  0  0  0  0  0  0  0  0  0  0  0
   -5.3728    7.5111    0.0000 H   0  0  0  0  0  0  0  0  0  0  0  0
   -4.7796    8.5386    0.0000 H   0  0  0  0  0  0  0  0  0  0  0  0
   -2.9458    9.3550    0.0000 H   0  0  0  0  0  0  0  0  0  0  0  0
   -1.7853    9.1084    0.0000 H   0  0  0  0  0  0  0  0  0  0  0  0
   -0.4421    7.6166    0.0000 H   0  0  0  0  0  0  0  0  0  0  0  0
   -0.4045    5.5387    0.0000 H   0  0  0  0  0  0  0  0  0  0  0  0
   -7.1844   -1.0318    0.0000 H   0  0  0  0  0  0  0  0  0  0  0  0
   -7.5213    0.3746    0.0000 H   0  0  0  0  0  0  0  0  0  0  0  0
   -6.9381    2.3892    0.0000 H   0  0  0  0  0  0  0  0  0  0  0  0
   -3.0377    3.1820    0.0000 H   0  0  0  0  0  0  0  0  0  0  0  0
   -6.1083    5.2922    0.0000 H   0  0  0  0  0  0  0  0  0  0  0  0
   -3.9446    4.6864    0.0000 H   0  0  0  0  0  0  0  0  0  0  0  0
   -6.6443    3.3780    0.0000 H   0  0  0  0  0  0  0  0  0  0  0  0
   -2.6789    1.6181    0.0000 H   0  0  0  0  0  0  0  0  0  0  0  0
  1  2  2  3
  2  3  1  0
  3  4  1  0
  4  5  1  0
  5  6  1  0
  6  7  1  0
  7  8  1  0
  8  9  1  0
  6 10  1  0
 10 11  1  0
 10 12  1  0
 12 13  1  0
 13 14  1  0
 14 15  1  0
 15 16  1  0
 16 17  2  3
 16 18  1  0
 18 19  1  0
 18 20  1  0
 20 21  1  0
 15 22  1  0
 22 23  1  0
 23 24  1  0
 23 25  1  0
 25 26  1  0
 26 27  1  0
 27 28  1  0
 28 29  2  0
 28 30  1  0
 30 31  1  0
 31 32  1  0
 32 33  1  0
 33 34  1  0
 34 35  1  0
 26 36  1  0
 36 37  1  0
 37 38  1  0
 38 39  1  0
 39 40  1  0
 40 41  1  0
 40 42  1  0
 25 43  1  0
 37  2  1  0
 42 39  1  0
 43 14  1  0
 43 22  1  0
 43 23  1  0
 35 31  1  0
 38 36  1  0
 42 36  1  0
  1 44  1  0
  1 45  1  0
  3 46  1  0
  3 47  1  0
  4 48  1  0
  4 49  1  0
  5 50  1  0
  5 51  1  0
  6 52  1  0
  7 53  1  0
  7 54  1  0
  8 55  1  0
  8 56  1  0
  9 57  1  0
  9 58  1  0
  9 59  1  0
 10 60  1  0
 11 61  1  0
 11 62  1  0
 11 63  1  0
 12 64  1  0
 12 65  1  0
 14 66  1  0
 15 67  1  0
 17 68  1  0
 17 69  1  0
 19 70  1  0
 19 71  1  0
 19 72  1  0
 20 73  1  0
 20 74  1  0
 21 75  1  0
 21 76  1  0
 21 77  1  0
 22 78  1  0
 24 79  1  0
 25 80  1  0
 26 81  1  0
 27 82  1  0
 27 83  1  0
 30 84  1  0
 30 85  1  0
 31 86  1  0
 32 87  1  0
 32 88  1  0
 33 89  1  0
 33 90  1  0
 34 91  1  0
 34 92  1  0
 35 93  1  0
 37 94  1  0
 38 95  1  0
 39 96  1  0
 40 97  1  0
 41 98  1  0
 41 99  1  0
 41100  1  0
 42101  1  0
M  END
$$$$
