
     RDKit          2D

 43 45  0  0  0  0  0  0  0  0999 V2000
   -5.2423    1.3940    0.0000 C   0  0  0  0  0  0  0  0  0  0  0  0
   -3.8328    1.9070    0.0000 C   0  0  0  0  0  0  0  0  0  0  0  0
   -2.4233    2.4200    0.0000 C   0  0  0  0  0  0  0  0  0  0  0  0
   -1.9102    1.0105    0.0000 N   0  0  0  0  0  0  0  0  0  0  0  0
   -0.4330    0.7500    0.0000 C   0  0  0  0  0  0  0  0  0  0  0  0
    0.8660    0.0000    0.0000 C   0  0  0  0  0  0  0  0  0  0  0  0
    1.8302    1.1491    0.0000 N   0  0  0  0  0  0  0  0  0  0  0  0
   -0.4330   -0.7500    0.0000 C   0  0  0  0  0  0  0  0  0  0  0  0
   -1.9102   -1.0105    0.0000 F   0  0  0  0  0  0  0  0  0  0  0  0
    0.0800   -2.1595    0.0000 C   0  0  0  0  0  0  0  0  0  0  0  0
    0.5930   -3.5691    0.0000 C   0  0  0  0  0  0  0  0  0  0  0  0
    1.1061   -4.9786    0.0000 C   0  0  0  0  0  0  0  0  0  0  0  0
    2.0703   -6.1277    0.0000 C   0  0  0  0  0  0  0  0  0  0  0  0
    2.5833   -4.7181    0.0000 C   0  0  0  0  0  0  0  0  0  0  0  0
    4.0605   -4.9786    0.0000 O   0  0  0  0  0  0  0  0  0  0  0  0
   -1.0137    2.9330    0.0000 C   0  0  0  0  0  0  0  0  0  0  0  0
    0.1354    3.8972    0.0000 C   0  0  0  0  0  0  0  0  0  0  0  0
   -1.2742    4.4103    0.0000 C   0  0  0  0  0  0  0  0  0  0  0  0
   -6.6519    0.8809    0.0000 H   0  0  0  0  0  0  0  0  0  0  0  0
   -4.7293   -0.0156    0.0000 H   0  0  0  0  0  0  0  0  0  0  0  0
   -5.7554    2.8035    0.0000 H   0  0  0  0  0  0  0  0  0  0  0  0
   -4.3458    3.3165    0.0000 H   0  0  0  0  0  0  0  0  0  0  0  0
   -3.4954    0.4454    0.0000 H   0  0  0  0  0  0  0  0  0  0  0  0
   -3.1043    3.7565    0.0000 H   0  0  0  0  0  0  0  0  0  0  0  0
   -2.7271   -0.2476    0.0000 H   0  0  0  0  0  0  0  0  0  0  0  0
   -0.0711    1.4603    0.0000 H   0  0  0  0  0  0  0  0  0  0  0  0
    1.8534   -0.9207    0.0000 H   0  0  0  0  0  0  0  0  0  0  0  0
    3.3074    0.8886    0.0000 H   0  0  0  0  0  0  0  0  0  0  0  0
    1.4928    2.6106    0.0000 H   0  0  0  0  0  0  0  0  0  0  0  0
   -1.3295   -2.6726    0.0000 H   0  0  0  0  0  0  0  0  0  0  0  0
    1.3954   -1.8559    0.0000 H   0  0  0  0  0  0  0  0  0  0  0  0
   -0.8165   -4.0821    0.0000 H   0  0  0  0  0  0  0  0  0  0  0  0
    1.7959   -2.9562    0.0000 H   0  0  0  0  0  0  0  0  0  0  0  0
   -0.1930   -5.7286    0.0000 H   0  0  0  0  0  0  0  0  0  0  0  0
    1.1061   -7.2768    0.0000 H   0  0  0  0  0  0  0  0  0  0  0  0
    3.3693   -6.8777    0.0000 H   0  0  0  0  0  0  0  0  0  0  0  0
    2.7478   -3.3782    0.0000 H   0  0  0  0  0  0  0  0  0  0  0  0
    5.0247   -3.8296    0.0000 H   0  0  0  0  0  0  0  0  0  0  0  0
   -0.5340    2.2964    0.0000 H   0  0  0  0  0  0  0  0  0  0  0  0
    1.3934    3.0803    0.0000 H   0  0  0  0  0  0  0  0  0  0  0  0
    0.8854    5.1963    0.0000 H   0  0  0  0  0  0  0  0  0  0  0  0
   -1.0137    5.8875    0.0000 H   0  0  0  0  0  0  0  0  0  0  0  0
   -2.7630    4.5931    0.0000 H   0  0  0  0  0  0  0  0  0  0  0  0
  1  2  1  0
  2  3  1  0
  3  4  1  0
  4  5  1  0
  5  6  1  0
  6  7  1  0
  6  8  1  0
  8  9  1  0
  8 10  1  0
 10 11  1  0
 11 12  1  0
 12 13  1  0
 13 14  1  0
 14 15  1  0
  3 16  1  0
 16 17  1  0
 17 18  1  0
  8  5  1  0
 14 12  1  0
 18 16  1  0
  1 19  1  0
  1 20  1  0
  1 21  1  0
  2 22  1  0
  2 23  1  0
  3 24  1  0
  4 25  1  0
  5 26  1  0
  6 27  1  0
  7 28  1  0
  7 29  1  0
 10 30  1  0
 10 31  1  0
 11 32  1  0
 11 33  1  0
 12 34  1  0
 13 35  1  0
 13 36  1  0
 14 37  1  0
 15 38  1  0
 16 39  1  0
 17 40  1  0
 17 41  1  0
 18 42  1  0
 18 43  1  0
M  END
$$$$
