
     RDKit          3D

 14 16  0  0  0  0  0  0  0  0999 V2000
   18.6202  -35.0256   -2.7656 O   0  0  0  0  0  0  0  0  0  0  0  0
   17.1640  -34.4183   -4.7046 C   0  0  0  0  0  0  0  0  0  0  0  0
   17.2233  -34.5630   -6.3028 C   0  0  0  0  0  0  0  0  0  0  0  0
   15.8725  -37.0667   -6.6931 C   0  0  0  0  0  0  0  0  0  0  0  0
   16.7859  -35.8313   -7.1791 C   0  0  0  0  0  0  0  0  0  0  0  0
   16.7227  -36.6769   -3.1599 C   0  0  0  0  0  0  0  0  0  0  0  0
   14.9067  -37.4839   -7.8617 C   0  0  0  0  0  0  0  0  0  0  0  0
   16.2396  -35.2779   -3.0153 C   0  0  0  0  0  0  0  0  0  0  0  0
   15.7913  -34.2955   -4.0651 C   0  0  0  0  0  0  0  0  0  0  0  0
   17.6238  -35.4807   -3.6661 C   0  0  0  0  0  0  0  0  0  0  0  0
   16.3126  -36.8334   -1.6477 C   0  0  0  0  0  0  0  0  0  0  0  0
   16.1533  -35.3054   -1.5028 C   0  0  0  0  0  0  0  0  0  0  0  0
   14.8785  -37.4498   -1.5521 C   0  0  0  0  0  0  0  0  0  0  0  0
   16.7030  -38.3046   -6.2414 C   0  0  0  0  0  0  0  0  0  0  0  0
  3  2  1  0
  5  3  1  0
  5  4  1  0
  7  4  1  0
  8  6  1  0
  9  2  1  0
  9  8  1  0
 10  1  1  0
 10  2  1  0
 10  6  1  0
 10  8  1  0
 11  6  1  0
 12  8  1  0
 12 11  1  0
 13 11  1  0
 14  4  1  0
M  END
$$$$
