
     RDKit          2D

 16 18  0  0  0  0  0  0  0  0999 V2000
   -1.1874   -4.4375    0.0000 C   0  0  0  0  0  0  0  0  0  0  0  0
   -2.6817   -4.5682    0.0000 O   0  0  0  0  0  0  0  0  0  0  0  0
   -2.8124   -3.0739    0.0000 O   0  0  0  0  0  0  0  0  0  0  0  0
   -1.3182   -2.9432    0.0000 C   0  0  0  0  0  0  0  0  0  0  0  0
   -1.4489   -1.4489    0.0000 C   0  0  0  0  0  0  0  0  0  0  0  0
   -0.0000   -1.0607    0.0000 C   0  0  0  0  0  0  0  0  0  0  0  0
    1.0607    0.0000    0.0000 C   0  0  0  0  0  0  0  0  0  0  0  0
    0.0000    1.0607    0.0000 O   0  0  0  0  0  0  0  0  0  0  0  0
   -1.0607    0.0000    0.0000 N   0  0  0  0  0  0  0  0  0  0  0  0
    0.3069   -4.3067    0.0000 H   0  0  0  0  0  0  0  0  0  0  0  0
   -1.0567   -5.9318    0.0000 H   0  0  0  0  0  0  0  0  0  0  0  0
    0.1809   -2.9956    0.0000 H   0  0  0  0  0  0  0  0  0  0  0  0
   -2.9432   -1.3182    0.0000 H   0  0  0  0  0  0  0  0  0  0  0  0
    0.9028   -2.2586    0.0000 H   0  0  0  0  0  0  0  0  0  0  0  0
    2.1213    1.0607    0.0000 H   0  0  0  0  0  0  0  0  0  0  0  0
    2.1213   -1.0607    0.0000 H   0  0  0  0  0  0  0  0  0  0  0  0
  1  2  1  0
  2  3  1  0
  3  4  1  0
  4  5  1  0
  5  6  1  0
  6  7  1  0
  7  8  1  0
  8  9  1  0
  4  1  1  0
  9  5  1  0
  9  6  1  0
  1 10  1  0
  1 11  1  0
  4 12  1  0
  5 13  1  0
  6 14  1  0
  7 15  1  0
  7 16  1  0
M  END
$$$$
