
     RDKit          2D

 55 57  0  0  0  0  0  0  0  0999 V2000
    7.2768   -2.8381    0.0000 C   0  0  0  0  0  0  0  0  0  0  0  0
    5.8672   -2.3251    0.0000 C   0  0  0  0  0  0  0  0  0  0  0  0
    5.6067   -0.8479    0.0000 C   0  0  0  0  0  0  0  0  0  0  0  0
    5.3463    0.6293    0.0000 C   0  0  0  0  0  0  0  0  0  0  0  0
    5.0858    2.1065    0.0000 C   0  0  0  0  0  0  0  0  0  0  0  0
    4.8253    3.5837    0.0000 C   0  0  0  0  0  0  0  0  0  0  0  0
    4.5648    5.0610    0.0000 C   0  0  0  0  0  0  0  0  0  0  0  0
    4.8253    6.5382    0.0000 C   0  0  0  0  0  0  0  0  0  0  0  0
    5.9744    5.5740    0.0000 C   0  0  0  0  0  0  0  0  0  0  0  0
    4.7181   -3.2893    0.0000 C   0  0  0  0  0  0  0  0  0  0  0  0
    3.3086   -3.8023    0.0000 C   0  0  0  0  0  0  0  0  0  0  0  0
    3.5691   -5.2795    0.0000 O   0  0  0  0  0  0  0  0  0  0  0  0
    3.5691   -2.3251    0.0000 C   0  0  0  0  0  0  0  0  0  0  0  0
    2.1595   -1.8121    0.0000 C   0  0  0  0  0  0  0  0  0  0  0  0
    0.7500   -1.2990    0.0000 C   0  0  0  0  0  0  0  0  0  0  0  0
    1.5000    0.0000    0.0000 N   0  0  0  0  0  0  0  0  0  0  0  0
    0.7500    1.2990    0.0000 C   0  0  0  0  0  0  0  0  0  0  0  0
    0.4895    2.7762    0.0000 O   0  0  0  0  0  0  0  0  0  0  0  0
   -0.7500    1.2990    0.0000 C   0  0  0  0  0  0  0  0  0  0  0  0
   -1.5000    0.0000    0.0000 C   0  0  0  0  0  0  0  0  0  0  0  0
   -0.7500   -1.2990    0.0000 C   0  0  0  0  0  0  0  0  0  0  0  0
   -0.4895   -2.7762    0.0000 C   0  0  0  0  0  0  0  0  0  0  0  0
    8.4258   -1.8739    0.0000 H   0  0  0  0  0  0  0  0  0  0  0  0
    7.5372   -4.3153    0.0000 H   0  0  0  0  0  0  0  0  0  0  0  0
    7.0840   -0.5874    0.0000 H   0  0  0  0  0  0  0  0  0  0  0  0
    4.7222   -0.8942    0.0000 H   0  0  0  0  0  0  0  0  0  0  0  0
    6.8235    0.8898    0.0000 H   0  0  0  0  0  0  0  0  0  0  0  0
    4.0168    0.3949    0.0000 H   0  0  0  0  0  0  0  0  0  0  0  0
    6.5630    2.3670    0.0000 H   0  0  0  0  0  0  0  0  0  0  0  0
    3.6086    1.8461    0.0000 H   0  0  0  0  0  0  0  0  0  0  0  0
    6.1735    3.6544    0.0000 H   0  0  0  0  0  0  0  0  0  0  0  0
    3.3481    3.3233    0.0000 H   0  0  0  0  0  0  0  0  0  0  0  0
    3.0648    5.0610    0.0000 H   0  0  0  0  0  0  0  0  0  0  0  0
    3.4158    7.0512    0.0000 H   0  0  0  0  0  0  0  0  0  0  0  0
    5.5753    7.8372    0.0000 H   0  0  0  0  0  0  0  0  0  0  0  0
    7.1235    6.5382    0.0000 H   0  0  0  0  0  0  0  0  0  0  0  0
    6.7869    4.4959    0.0000 H   0  0  0  0  0  0  0  0  0  0  0  0
    5.4681   -4.5883    0.0000 H   0  0  0  0  0  0  0  0  0  0  0  0
    1.9687   -3.9669    0.0000 H   0  0  0  0  0  0  0  0  0  0  0  0
    2.4200   -6.2437    0.0000 H   0  0  0  0  0  0  0  0  0  0  0  0
    3.9151   -1.5098    0.0000 H   0  0  0  0  0  0  0  0  0  0  0  0
    2.6560   -0.8378    0.0000 H   0  0  0  0  0  0  0  0  0  0  0  0
    1.7127   -2.6889    0.0000 H   0  0  0  0  0  0  0  0  0  0  0  0
    0.6864   -2.5124    0.0000 H   0  0  0  0  0  0  0  0  0  0  0  0
    2.4768    0.1200    0.0000 H   0  0  0  0  0  0  0  0  0  0  0  0
    2.1595    1.8121    0.0000 H   0  0  0  0  0  0  0  0  0  0  0  0
    1.6386    3.7404    0.0000 H   0  0  0  0  0  0  0  0  0  0  0  0
   -2.1595    1.8121    0.0000 H   0  0  0  0  0  0  0  0  0  0  0  0
   -0.4895    2.7762    0.0000 H   0  0  0  0  0  0  0  0  0  0  0  0
   -2.6491   -0.9642    0.0000 H   0  0  0  0  0  0  0  0  0  0  0  0
   -2.6491    0.9642    0.0000 H   0  0  0  0  0  0  0  0  0  0  0  0
   -2.1595   -1.8121    0.0000 H   0  0  0  0  0  0  0  0  0  0  0  0
   -0.2291   -4.2535    0.0000 H   0  0  0  0  0  0  0  0  0  0  0  0
   -1.9667   -3.0367    0.0000 H   0  0  0  0  0  0  0  0  0  0  0  0
    0.6025   -2.7190    0.0000 H   0  0  0  0  0  0  0  0  0  0  0  0
  1  2  2  3
  2  3  1  0
  3  4  1  0
  4  5  1  0
  5  6  1  0
  6  7  1  0
  7  8  1  0
  8  9  1  0
  2 10  1  0
 10 11  1  0
 11 12  1  0
 11 13  1  0
 13 14  1  0
 14 15  1  0
 15 16  1  0
 16 17  1  0
 17 18  1  0
 17 19  1  0
 19 20  1  0
 20 21  1  0
 21 22  1  0
  9  7  1  0
 13 10  1  0
 21 15  1  0
  1 23  1  0
  1 24  1  0
  3 25  1  0
  3 26  1  0
  4 27  1  0
  4 28  1  0
  5 29  1  0
  5 30  1  0
  6 31  1  0
  6 32  1  0
  7 33  1  0
  8 34  1  0
  8 35  1  0
  9 36  1  0
  9 37  1  0
 10 38  1  6
 11 39  1  1
 12 40  1  0
 13 41  1  1
 14 42  1  0
 14 43  1  0
 15 44  1  6
 16 45  1  0
 17 46  1  1
 18 47  1  0
 19 48  1  0
 19 49  1  0
 20 50  1  0
 20 51  1  0
 21 52  1  1
 22 53  1  0
 22 54  1  0
 22 55  1  0
M  END
$$$$
