
     RDKit          2D

 55 57  0  0  0  0  0  0  0  0999 V2000
    6.2000   -4.3358    0.0000 C   0  0  0  0  0  0  0  0  0  0  0  0
    5.2358   -3.1867    0.0000 C   0  0  0  0  0  0  0  0  0  0  0  0
    3.7586   -3.4472    0.0000 C   0  0  0  0  0  0  0  0  0  0  0  0
    2.7944   -2.2981    0.0000 C   0  0  0  0  0  0  0  0  0  0  0  0
    1.6453   -3.2623    0.0000 C   0  0  0  0  0  0  0  0  0  0  0  0
    1.8302   -1.1491    0.0000 C   0  0  0  0  0  0  0  0  0  0  0  0
    0.8660    0.0000    0.0000 C   0  0  0  0  0  0  0  0  0  0  0  0
   -0.4330    0.7500    0.0000 C   0  0  0  0  0  0  0  0  0  0  0  0
   -1.4937    1.8107    0.0000 C   0  0  0  0  0  0  0  0  0  0  0  0
   -2.9937    1.8107    0.0000 C   0  0  0  0  0  0  0  0  0  0  0  0
   -4.0543    0.7500    0.0000 C   0  0  0  0  0  0  0  0  0  0  0  0
   -4.0543   -0.7500    0.0000 O   0  0  0  0  0  0  0  0  0  0  0  0
   -2.9937   -1.8107    0.0000 C   0  0  0  0  0  0  0  0  0  0  0  0
   -3.5677   -3.1965    0.0000 C   0  0  0  0  0  0  0  0  0  0  0  0
   -3.8411   -4.6714    0.0000 C   0  0  0  0  0  0  0  0  0  0  0  0
   -5.3282   -4.8672    0.0000 C   0  0  0  0  0  0  0  0  0  0  0  0
   -5.9740   -3.5133    0.0000 C   0  0  0  0  0  0  0  0  0  0  0  0
   -6.8871   -2.3232    0.0000 C   0  0  0  0  0  0  0  0  0  0  0  0
   -7.8003   -1.1332    0.0000 C   0  0  0  0  0  0  0  0  0  0  0  0
   -4.8859   -2.4807    0.0000 C   0  0  0  0  0  0  0  0  0  0  0  0
   -1.4937   -1.8107    0.0000 N   0  0  0  0  0  0  0  0  0  0  0  0
   -0.4330   -0.7500    0.0000 C   0  0  0  0  0  0  0  0  0  0  0  0
    7.3490   -3.3716    0.0000 H   0  0  0  0  0  0  0  0  0  0  0  0
    5.0509   -5.3000    0.0000 H   0  0  0  0  0  0  0  0  0  0  0  0
    7.1641   -5.4849    0.0000 H   0  0  0  0  0  0  0  0  0  0  0  0
    5.7488   -1.7772    0.0000 H   0  0  0  0  0  0  0  0  0  0  0  0
    3.6019   -4.9390    0.0000 H   0  0  0  0  0  0  0  0  0  0  0  0
    3.9435   -1.3340    0.0000 H   0  0  0  0  0  0  0  0  0  0  0  0
    1.9947   -3.9788    0.0000 H   0  0  0  0  0  0  0  0  0  0  0  0
    2.1577   -3.8730    0.0000 H   0  0  0  0  0  0  0  0  0  0  0  0
    0.4963   -4.2265    0.0000 H   0  0  0  0  0  0  0  0  0  0  0  0
    2.9793   -0.1849    0.0000 H   0  0  0  0  0  0  0  0  0  0  0  0
    0.8072   -2.2461    0.0000 H   0  0  0  0  0  0  0  0  0  0  0  0
    1.8302    1.1491    0.0000 H   0  0  0  0  0  0  0  0  0  0  0  0
    0.4801    1.9400    0.0000 H   0  0  0  0  0  0  0  0  0  0  0  0
   -1.7024    3.2961    0.0000 H   0  0  0  0  0  0  0  0  0  0  0  0
   -0.1946    2.5607    0.0000 H   0  0  0  0  0  0  0  0  0  0  0  0
   -4.1916    2.7134    0.0000 H   0  0  0  0  0  0  0  0  0  0  0  0
   -2.7850    3.2961    0.0000 H   0  0  0  0  0  0  0  0  0  0  0  0
   -5.5032    0.3618    0.0000 H   0  0  0  0  0  0  0  0  0  0  0  0
   -4.9571    1.9479    0.0000 H   0  0  0  0  0  0  0  0  0  0  0  0
   -2.1295   -3.6225    0.0000 H   0  0  0  0  0  0  0  0  0  0  0  0
   -2.3457   -4.7891    0.0000 H   0  0  0  0  0  0  0  0  0  0  0  0
   -3.8018   -6.1708    0.0000 H   0  0  0  0  0  0  0  0  0  0  0  0
   -4.9781   -6.3257    0.0000 H   0  0  0  0  0  0  0  0  0  0  0  0
   -6.7422   -5.3679    0.0000 H   0  0  0  0  0  0  0  0  0  0  0  0
   -7.2529   -4.2970    0.0000 H   0  0  0  0  0  0  0  0  0  0  0  0
   -8.0772   -3.2364    0.0000 H   0  0  0  0  0  0  0  0  0  0  0  0
   -5.8173   -1.2719    0.0000 H   0  0  0  0  0  0  0  0  0  0  0  0
   -8.9903   -2.0464    0.0000 H   0  0  0  0  0  0  0  0  0  0  0  0
   -6.6102   -0.2201    0.0000 H   0  0  0  0  0  0  0  0  0  0  0  0
   -8.7134    0.0568    0.0000 H   0  0  0  0  0  0  0  0  0  0  0  0
   -5.8993   -1.3748    0.0000 H   0  0  0  0  0  0  0  0  0  0  0  0
   -4.3607   -1.0757    0.0000 H   0  0  0  0  0  0  0  0  0  0  0  0
    0.3283   -2.0425    0.0000 H   0  0  0  0  0  0  0  0  0  0  0  0
  1  2  1  0
  2  3  2  3
  3  4  1  0
  4  5  1  0
  4  6  1  0
  6  7  1  0
  7  8  1  0
  8  9  1  0
  9 10  1  0
 10 11  1  0
 11 12  1  0
 12 13  1  0
 13 14  1  0
 14 15  1  0
 15 16  1  0
 16 17  1  0
 17 18  1  0
 18 19  1  0
 17 20  1  0
 13 21  2  0
 21 22  1  0
 22  7  1  0
 22  8  1  0
 20 14  1  0
  1 23  1  0
  1 24  1  0
  1 25  1  0
  2 26  1  0
  3 27  1  0
  4 28  1  1
  5 29  1  0
  5 30  1  0
  5 31  1  0
  6 32  1  0
  6 33  1  0
  7 34  1  6
  8 35  1  1
  9 36  1  0
  9 37  1  0
 10 38  1  0
 10 39  1  0
 11 40  1  0
 11 41  1  0
 14 42  1  6
 15 43  1  0
 15 44  1  0
 16 45  1  0
 16 46  1  0
 17 47  1  1
 18 48  1  0
 18 49  1  0
 19 50  1  0
 19 51  1  0
 19 52  1  0
 20 53  1  0
 20 54  1  0
 22 55  1  1
M  END
$$$$
