
     RDKit          2D

 22 26  0  0  0  0  0  0  0  0999 V2000
    4.3019    3.3636    0.0000 C   0  0  0  0  0  0  0  0  0  0  0  0
    3.9137    4.8125    0.0000 N   0  0  0  0  0  0  0  0  0  0  0  0
    2.4648    4.4242    0.0000 O   0  0  0  0  0  0  0  0  0  0  0  0
    2.8530    2.9753    0.0000 C   0  0  0  0  0  0  0  0  0  0  0  0
    1.4041    2.5871    0.0000 C   0  0  0  0  0  0  0  0  0  0  0  0
   -0.0448    2.1989    0.0000 O   0  0  0  0  0  0  0  0  0  0  0  0
   -0.4330    0.7500    0.0000 C   0  0  0  0  0  0  0  0  0  0  0  0
    0.8660    0.0000    0.0000 N   0  0  0  0  0  0  0  0  0  0  0  0
   -0.4330   -0.7500    0.0000 C   0  0  0  0  0  0  0  0  0  0  0  0
   -3.4330   -0.7500    0.0000 C   0  0  0  0  0  0  0  0  0  0  0  0
   -3.4330    0.7500    0.0000 N   0  0  0  0  0  0  0  0  0  0  0  0
   -1.9330    0.7500    0.0000 B   0  0  0  0  0  0  0  0  0  0  0  0
   -1.9330   -0.7500    0.0000 N   0  0  0  0  0  0  0  0  0  0  0  0
    4.6901    1.9147    0.0000 H   0  0  0  0  0  0  0  0  0  0  0  0
    5.7508    3.7518    0.0000 H   0  0  0  0  0  0  0  0  0  0  0  0
    4.6637    6.1115    0.0000 H   0  0  0  0  0  0  0  0  0  0  0  0
    3.2412    1.5265    0.0000 H   0  0  0  0  0  0  0  0  0  0  0  0
    1.7923    1.1382    0.0000 H   0  0  0  0  0  0  0  0  0  0  0  0
    1.0159    4.0360    0.0000 H   0  0  0  0  0  0  0  0  0  0  0  0
    2.3660    0.0000    0.0000 H   0  0  0  0  0  0  0  0  0  0  0  0
   -4.4937   -1.8107    0.0000 H   0  0  0  0  0  0  0  0  0  0  0  0
   -4.4937    1.8107    0.0000 H   0  0  0  0  0  0  0  0  0  0  0  0
  1  2  1  0
  2  3  1  0
  3  4  1  0
  4  5  1  0
  5  6  1  0
  6  7  1  0
  7  8  1  0
  8  9  1  0
  9 10  1  0
 10 11  1  0
 11 12  1  0
 12 13  1  0
  4  1  1  0
  9  7  1  0
 13 10  1  0
 12  7  1  0
 13  9  1  0
  1 14  1  0
  1 15  1  0
  2 16  1  0
  4 17  1  0
  5 18  1  0
  5 19  1  0
  8 20  1  0
 10 21  1  0
 11 22  1  0
M  END
$$$$
