
     RDKit          3D

 17 20  0  0  0  0  0  0  0  0999 V2000
   12.8363  -30.1859  -10.6403 C   0  0  0  0  0  0  0  0  0  0  0  0
   15.8023  -27.9628  -11.4749 F   0  0  0  0  0  0  0  0  0  0  0  0
   13.8208  -28.4588  -12.7084 F   0  0  0  0  0  0  0  0  0  0  0  0
   13.6315  -27.7298  -10.3778 C   0  0  0  0  0  0  0  0  0  0  0  0
   14.4695  -28.3371  -11.4914 C   0  0  0  0  0  0  0  0  0  0  0  0
   12.3402  -30.8373   -9.3267 C   0  0  0  0  0  0  0  0  0  0  0  0
   14.7691  -33.6565   -8.4483 C   0  0  0  0  0  0  0  0  0  0  0  0
   13.9964  -29.2149  -10.3441 C   0  0  0  0  0  0  0  0  0  0  0  0
   14.7668  -32.2050   -6.9722 C   0  0  0  0  0  0  0  0  0  0  0  0
   12.6453  -32.3429   -9.2122 C   0  0  0  0  0  0  0  0  0  0  0  0
   14.3451  -33.6062   -7.0353 N   0  0  0  0  0  0  0  0  0  0  0  0
   14.1345  -32.6881   -9.4334 C   0  0  0  0  0  0  0  0  0  0  0  0
   15.1542  -32.1642   -8.4392 C   0  0  0  0  0  0  0  0  0  0  0  0
   15.0994  -34.4704   -6.0882 C   0  0  0  0  0  0  0  0  0  0  0  0
   14.9755  -35.9577   -6.4152 C   0  0  0  0  0  0  0  0  0  0  0  0
   16.6252  -34.5612   -6.2489 C   0  0  0  0  0  0  0  0  0  0  0  0
   16.4901  -36.0430   -6.5867 C   0  0  0  0  0  0  0  0  0  0  0  0
  5  2  1  0
  5  3  1  0
  5  4  1  0
  6  1  1  0
  8  1  1  0
  8  4  1  0
  8  5  1  0
 10  6  1  0
 11  7  1  0
 11  9  1  0
 12  7  1  0
 12 10  1  0
 13  7  1  0
 13  9  1  0
 13 12  1  0
 14 11  1  0
 15 14  1  0
 16 14  1  0
 17 15  1  0
 17 16  1  0
M  END
$$$$
