
     RDKit          2D

 97106  0  0  0  0  0  0  0  0999 V2000
   -6.5619   -5.9601    0.0000 C   0  0  0  0  0  0  0  0  0  0  0  0
   -5.0621   -5.9376    0.0000 C   0  0  0  0  0  0  0  0  0  0  0  0
   -4.7502   -4.4704    0.0000 C   0  0  0  0  0  0  0  0  0  0  0  0
   -3.8326   -3.2838    0.0000 N   0  0  0  0  0  0  0  0  0  0  0  0
   -2.1715   -2.6807    0.0000 C   0  0  0  0  0  0  0  0  0  0  0  0
   -1.8596   -1.2135    0.0000 C   0  0  0  0  0  0  0  0  0  0  0  0
   -2.7413    0.0000    0.0000 O   0  0  0  0  0  0  0  0  0  0  0  0
   -1.8596    1.2135    0.0000 C   0  0  0  0  0  0  0  0  0  0  0  0
   -3.1586    1.9635    0.0000 N   0  0  0  0  0  0  0  0  0  0  0  0
   -3.1586    3.4635    0.0000 Br  0  0  0  0  0  0  0  0  0  0  0  0
   -0.4330    0.7500    0.0000 C   0  0  0  0  0  0  0  0  0  0  0  0
    0.8660    0.0000    0.0000 C   0  0  0  0  0  0  0  0  0  0  0  0
   -0.4330   -0.7500    0.0000 C   0  0  0  0  0  0  0  0  0  0  0  0
    0.6817   -1.7537    0.0000 C   0  0  0  0  0  0  0  0  0  0  0  0
    0.3698   -3.2209    0.0000 C   0  0  0  0  0  0  0  0  0  0  0  0
    1.4846   -4.2246    0.0000 C   0  0  0  0  0  0  0  0  0  0  0  0
    2.5993   -5.2283    0.0000 C   0  0  0  0  0  0  0  0  0  0  0  0
    3.6030   -4.1136    0.0000 C   0  0  0  0  0  0  0  0  0  0  0  0
    4.7177   -5.1173    0.0000 C   0  0  0  0  0  0  0  0  0  0  0  0
    5.8324   -6.1210    0.0000 C   0  0  0  0  0  0  0  0  0  0  0  0
    6.8361   -5.0063    0.0000 C   0  0  0  0  0  0  0  0  0  0  0  0
    6.5314   -6.0843    0.0000 C   0  0  0  0  0  0  0  0  0  0  0  0
    4.8287   -7.2357    0.0000 C   0  0  0  0  0  0  0  0  0  0  0  0
    6.9471   -7.1247    0.0000 C   0  0  0  0  0  0  0  0  0  0  0  0
    8.4143   -7.4365    0.0000 C   0  0  0  0  0  0  0  0  0  0  0  0
    7.9508   -6.0100    0.0000 C   0  0  0  0  0  0  0  0  0  0  0  0
    3.7140   -6.2320    0.0000 N   0  0  0  0  0  0  0  0  0  0  0  0
    1.3225   -4.3795    0.0000 B   0  0  0  0  0  0  0  0  0  0  0  0
    1.6781   -5.8368    0.0000 C   0  0  0  0  0  0  0  0  0  0  0  0
    1.3663   -7.3040    0.0000 C   0  0  0  0  0  0  0  0  0  0  0  0
    0.4487   -8.4906    0.0000 C   0  0  0  0  0  0  0  0  0  0  0  0
   -0.8929   -9.1616    0.0000 C   0  0  0  0  0  0  0  0  0  0  0  0
   -2.3927   -9.1840    0.0000 C   0  0  0  0  0  0  0  0  0  0  0  0
   -3.7538   -8.5535    0.0000 C   0  0  0  0  0  0  0  0  0  0  0  0
   -4.9124   -9.5062    0.0000 C   0  0  0  0  0  0  0  0  0  0  0  0
   -5.8651   -8.3475    0.0000 C   0  0  0  0  0  0  0  0  0  0  0  0
   -4.7064   -7.3949    0.0000 C   0  0  0  0  0  0  0  0  0  0  0  0
    0.7605   -7.0234    0.0000 C   0  0  0  0  0  0  0  0  0  0  0  0
   -0.0088   -5.7357    0.0000 C   0  0  0  0  0  0  0  0  0  0  0  0
   -0.7782   -4.4480    0.0000 O   0  0  0  0  0  0  0  0  0  0  0  0
   -1.2965   -6.5051    0.0000 O   0  0  0  0  0  0  0  0  0  0  0  0
   -1.0567   -3.6844    0.0000 C   0  0  0  0  0  0  0  0  0  0  0  0
   -2.2388   -4.6079    0.0000 C   0  0  0  0  0  0  0  0  0  0  0  0
   -3.4208   -5.5314    0.0000 O   0  0  0  0  0  0  0  0  0  0  0  0
   -7.3312   -4.6724    0.0000 H   0  0  0  0  0  0  0  0  0  0  0  0
   -7.4466   -7.1714    0.0000 H   0  0  0  0  0  0  0  0  0  0  0  0
   -6.2299   -4.7161    0.0000 H   0  0  0  0  0  0  0  0  0  0  0  0
   -5.5195   -3.1827    0.0000 H   0  0  0  0  0  0  0  0  0  0  0  0
   -4.7853   -2.1252    0.0000 H   0  0  0  0  0  0  0  0  0  0  0  0
   -3.5309   -3.3147    0.0000 H   0  0  0  0  0  0  0  0  0  0  0  0
   -3.3268   -1.5254    0.0000 H   0  0  0  0  0  0  0  0  0  0  0  0
   -1.2495    2.5838    0.0000 H   0  0  0  0  0  0  0  0  0  0  0  0
   -4.4577    1.2135    0.0000 H   0  0  0  0  0  0  0  0  0  0  0  0
    0.1771    2.1203    0.0000 H   0  0  0  0  0  0  0  0  0  0  0  0
    1.8302    1.1491    0.0000 H   0  0  0  0  0  0  0  0  0  0  0  0
    1.9631   -1.0230    0.0000 H   0  0  0  0  0  0  0  0  0  0  0  0
    2.1671   -1.9624    0.0000 H   0  0  0  0  0  0  0  0  0  0  0  0
    1.8797   -0.8511    0.0000 H   0  0  0  0  0  0  0  0  0  0  0  0
    0.4809   -5.3393    0.0000 H   0  0  0  0  0  0  0  0  0  0  0  0
    2.3449   -2.9959    0.0000 H   0  0  0  0  0  0  0  0  0  0  0  0
    1.8951   -6.5528    0.0000 H   0  0  0  0  0  0  0  0  0  0  0  0
    4.6067   -2.9989    0.0000 H   0  0  0  0  0  0  0  0  0  0  0  0
    2.9221   -2.7770    0.0000 H   0  0  0  0  0  0  0  0  0  0  0  0
    5.7214   -4.0026    0.0000 H   0  0  0  0  0  0  0  0  0  0  0  0
    5.1283   -7.4454    0.0000 H   0  0  0  0  0  0  0  0  0  0  0  0
    6.7576   -3.5083    0.0000 H   0  0  0  0  0  0  0  0  0  0  0  0
    4.9937   -4.8774    0.0000 H   0  0  0  0  0  0  0  0  0  0  0  0
    3.9684   -8.4645    0.0000 H   0  0  0  0  0  0  0  0  0  0  0  0
    5.9434   -8.2394    0.0000 H   0  0  0  0  0  0  0  0  0  0  0  0
    3.6000   -6.3754    0.0000 H   0  0  0  0  0  0  0  0  0  0  0  0
    8.3620   -8.9356    0.0000 H   0  0  0  0  0  0  0  0  0  0  0  0
    9.8997   -7.2278    0.0000 H   0  0  0  0  0  0  0  0  0  0  0  0
    9.2088   -5.1930    0.0000 H   0  0  0  0  0  0  0  0  0  0  0  0
    3.6093   -7.7283    0.0000 H   0  0  0  0  0  0  0  0  0  0  0  0
    2.6641   -3.7086    0.0000 H   0  0  0  0  0  0  0  0  0  0  0  0
    3.1695   -5.9973    0.0000 H   0  0  0  0  0  0  0  0  0  0  0  0
    2.8460   -7.0583    0.0000 H   0  0  0  0  0  0  0  0  0  0  0  0
    2.1356   -8.5917    0.0000 H   0  0  0  0  0  0  0  0  0  0  0  0
    1.4014   -9.6492    0.0000 H   0  0  0  0  0  0  0  0  0  0  0  0
    0.2218  -10.1653    0.0000 H   0  0  0  0  0  0  0  0  0  0  0  0
   -1.2448  -10.6197    0.0000 H   0  0  0  0  0  0  0  0  0  0  0  0
   -1.9973  -10.6310    0.0000 H   0  0  0  0  0  0  0  0  0  0  0  0
   -3.3425  -10.3450    0.0000 H   0  0  0  0  0  0  0  0  0  0  0  0
   -2.4958   -7.7365    0.0000 H   0  0  0  0  0  0  0  0  0  0  0  0
   -6.0710  -10.4588    0.0000 H   0  0  0  0  0  0  0  0  0  0  0  0
   -4.1080  -10.7723    0.0000 H   0  0  0  0  0  0  0  0  0  0  0  0
   -7.0698   -7.4539    0.0000 H   0  0  0  0  0  0  0  0  0  0  0  0
   -7.0237   -9.3002    0.0000 H   0  0  0  0  0  0  0  0  0  0  0  0
   -6.0611   -6.7507    0.0000 H   0  0  0  0  0  0  0  0  0  0  0  0
   -0.7192   -7.2691    0.0000 H   0  0  0  0  0  0  0  0  0  0  0  0
    1.3630   -5.1291    0.0000 H   0  0  0  0  0  0  0  0  0  0  0  0
   -2.2280   -4.8327    0.0000 H   0  0  0  0  0  0  0  0  0  0  0  0
   -2.7444   -6.1133    0.0000 H   0  0  0  0  0  0  0  0  0  0  0  0
   -0.1964   -4.9131    0.0000 H   0  0  0  0  0  0  0  0  0  0  0  0
   -1.6287   -5.9783    0.0000 H   0  0  0  0  0  0  0  0  0  0  0  0
   -3.5246   -3.8355    0.0000 H   0  0  0  0  0  0  0  0  0  0  0  0
   -4.9062   -5.3227    0.0000 H   0  0  0  0  0  0  0  0  0  0  0  0
  1  2  2  3
  2  3  1  0
  3  4  1  0
  4  5  1  0
  5  6  1  0
  6  7  1  0
  7  8  1  0
  8  9  1  0
  9 10  1  0
  8 11  1  0
 11 12  1  0
 13 12  1  1
 13 14  1  0
 14 15  1  0
 15 16  1  6
 16 17  1  0
 17 18  1  0
 18 19  1  0
 19 20  1  0
 20 21  1  0
 21 22  1  0
 22 23  1  0
 22 24  1  0
 24 25  1  6
 25 26  1  0
 19 27  1  0
 15 28  1  0
 28 29  1  0
 29 30  1  0
 30 31  1  0
 31 32  1  0
 32 33  1  0
 33 34  1  0
 34 35  1  0
 35 36  1  0
 36 37  1  0
 31 38  1  0
 38 39  1  0
 39 40  1  0
 39 41  1  0
 15 42  1  0
 42 43  1  0
 43 44  1  0
 37  2  1  0
 42  5  1  0
 13  6  1  0
 27 17  1  0
 38 29  1  0
 13 11  1  0
 24 20  1  0
 37 34  1  0
 26 21  1  0
 26 24  1  0
  1 45  1  0
  1 46  1  0
  3 47  1  0
  3 48  1  0
  4 49  1  0
  5 50  1  6
  6 51  1  6
  8 52  1  6
  9 53  1  0
 11 54  1  6
 12 55  1  0
 12 56  1  0
 14 57  1  0
 14 58  1  0
 16 59  1  0
 16 60  1  0
 17 61  1  6
 18 62  1  0
 18 63  1  0
 19 64  1  1
 20 65  1  6
 21 66  1  1
 22 67  1  6
 23 68  1  0
 23 69  1  0
 23 70  1  0
 25 71  1  0
 25 72  1  0
 26 73  1  6
 27 74  1  0
 28 75  1  0
 29 76  1  1
 30 77  1  0
 30 78  1  0
 31 79  1  6
 32 80  1  0
 32 81  1  0
 33 82  1  0
 33 83  1  0
 34 84  1  6
 35 85  1  0
 35 86  1  0
 36 87  1  0
 36 88  1  0
 37 89  1  1
 38 90  1  1
 39 91  1  0
 40 92  1  0
 41 93  1  0
 42 94  1  1
 43 95  1  0
 43 96  1  0
 44 97  1  0
M  END
$$$$
