
     RDKit          2D

 34 37  0  0  0  0  0  0  0  0999 V2000
    4.7228    4.5963    0.0000 C   0  0  0  0  0  0  0  0  0  0  0  0
    3.7586    3.4472    0.0000 C   0  0  0  0  0  0  0  0  0  0  0  0
    2.7944    2.2981    0.0000 C   0  0  0  0  0  0  0  0  0  0  0  0
    1.8302    1.1491    0.0000 C   0  0  0  0  0  0  0  0  0  0  0  0
    0.8660    0.0000    0.0000 C   0  0  0  0  0  0  0  0  0  0  0  0
   -0.4330    0.7500    0.0000 C   0  0  0  0  0  0  0  0  0  0  0  0
   -0.4330    2.2500    0.0000 N   0  0  0  0  0  0  0  0  0  0  0  0
   -1.7321    0.0000    0.0000 C   0  0  0  0  0  0  0  0  0  0  0  0
   -1.7321   -1.5000    0.0000 C   0  0  0  0  0  0  0  0  0  0  0  0
   -3.2093   -1.7605    0.0000 N   0  0  0  0  0  0  0  0  0  0  0  0
   -3.7223   -3.1700    0.0000 C   0  0  0  0  0  0  0  0  0  0  0  0
   -4.6865   -4.3191    0.0000 C   0  0  0  0  0  0  0  0  0  0  0  0
   -5.1995   -2.9095    0.0000 C   0  0  0  0  0  0  0  0  0  0  0  0
   -0.4330   -0.7500    0.0000 C   0  0  0  0  0  0  0  0  0  0  0  0
    5.6869    5.7453    0.0000 H   0  0  0  0  0  0  0  0  0  0  0  0
    3.5737    5.5604    0.0000 H   0  0  0  0  0  0  0  0  0  0  0  0
    5.8718    3.6321    0.0000 H   0  0  0  0  0  0  0  0  0  0  0  0
    2.6095    4.4114    0.0000 H   0  0  0  0  0  0  0  0  0  0  0  0
    4.9076    2.4830    0.0000 H   0  0  0  0  0  0  0  0  0  0  0  0
    1.7714    3.3952    0.0000 H   0  0  0  0  0  0  0  0  0  0  0  0
    3.9435    1.3340    0.0000 H   0  0  0  0  0  0  0  0  0  0  0  0
    0.8072    2.2461    0.0000 H   0  0  0  0  0  0  0  0  0  0  0  0
    2.9793    0.1849    0.0000 H   0  0  0  0  0  0  0  0  0  0  0  0
    1.8302   -1.1491    0.0000 H   0  0  0  0  0  0  0  0  0  0  0  0
    0.6459    3.2920    0.0000 H   0  0  0  0  0  0  0  0  0  0  0  0
   -1.7321    3.0000    0.0000 H   0  0  0  0  0  0  0  0  0  0  0  0
   -3.0311    0.7500    0.0000 H   0  0  0  0  0  0  0  0  0  0  0  0
   -1.2190   -2.9095    0.0000 H   0  0  0  0  0  0  0  0  0  0  0  0
   -4.1734   -0.6114    0.0000 H   0  0  0  0  0  0  0  0  0  0  0  0
   -2.4233   -3.9200    0.0000 H   0  0  0  0  0  0  0  0  0  0  0  0
   -3.7223   -5.4681    0.0000 H   0  0  0  0  0  0  0  0  0  0  0  0
   -5.9855   -5.0691    0.0000 H   0  0  0  0  0  0  0  0  0  0  0  0
   -6.6767   -3.1700    0.0000 H   0  0  0  0  0  0  0  0  0  0  0  0
   -5.1995   -1.4095    0.0000 H   0  0  0  0  0  0  0  0  0  0  0  0
  1  2  1  0
  2  3  1  0
  3  4  1  0
  4  5  1  0
  5  6  1  0
  6  7  1  6
  6  8  1  0
  8  9  1  0
  9 10  1  0
 10 11  1  0
 11 12  1  0
 12 13  1  0
  9 14  1  0
 14  5  1  0
 14  6  1  6
 14  8  1  0
 13 11  1  0
  1 15  1  0
  1 16  1  0
  1 17  1  0
  2 18  1  0
  2 19  1  0
  3 20  1  0
  3 21  1  0
  4 22  1  0
  4 23  1  0
  5 24  1  1
  7 25  1  0
  7 26  1  0
  8 27  1  6
  9 28  1  6
 10 29  1  0
 11 30  1  0
 12 31  1  0
 12 32  1  0
 13 33  1  0
 13 34  1  0
M  END
$$$$
