
     RDKit          2D

 40 41  0  0  0  0  0  0  0  0999 V2000
    9.1146    2.3413    0.0000 C   0  0  0  0  0  0  0  0  0  0  0  0
    7.6274    2.1455    0.0000 C   0  0  0  0  0  0  0  0  0  0  0  0
    7.4316    3.6326    0.0000 O   0  0  0  0  0  0  0  0  0  0  0  0
    6.1403    1.9497    0.0000 C   0  0  0  0  0  0  0  0  0  0  0  0
    4.6531    1.7539    0.0000 C   0  0  0  0  0  0  0  0  0  0  0  0
    3.1659    1.5581    0.0000 C   0  0  0  0  0  0  0  0  0  0  0  0
    1.7801    2.1321    0.0000 N   0  0  0  0  0  2  0  0  0  0  0  0
    0.3943    1.2135    0.0000 C   0  0  0  0  0  0  0  0  0  0  0  0
    1.2760    0.0000    0.0000 C   0  0  0  0  0  0  0  0  0  0  0  0
    0.3943   -1.2135    0.0000 C   0  0  0  0  0  0  0  0  0  0  0  0
    1.7801   -1.7876    0.0000 C   0  0  0  0  0  0  0  0  0  0  0  0
    3.1659   -1.2135    0.0000 C   0  0  0  0  0  0  0  0  0  0  0  0
    3.7400    0.1723    0.0000 C   0  0  0  0  0  0  0  0  0  0  0  0
    4.9300   -0.7408    0.0000 C   0  0  0  0  0  0  0  0  0  0  0  0
   -1.0323   -0.7500    0.0000 C   0  0  0  0  0  0  0  0  0  0  0  0
   -1.0323    0.7500    0.0000 Sb  0  0  0  0  0  2  0  0  0  0  0  0
   10.6018    2.5371    0.0000 H   0  0  0  0  0  0  0  0  0  0  0  0
    9.3104    0.8541    0.0000 H   0  0  0  0  0  0  0  0  0  0  0  0
    9.1016    3.8412    0.0000 H   0  0  0  0  0  0  0  0  0  0  0  0
    7.8232    0.6583    0.0000 H   0  0  0  0  0  0  0  0  0  0  0  0
    8.5015    4.6840    0.0000 H   0  0  0  0  0  0  0  0  0  0  0  0
    6.5159    0.4975    0.0000 H   0  0  0  0  0  0  0  0  0  0  0  0
    5.9445    3.4369    0.0000 H   0  0  0  0  0  0  0  0  0  0  0  0
    5.0287    0.3017    0.0000 H   0  0  0  0  0  0  0  0  0  0  0  0
    4.4573    3.2411    0.0000 H   0  0  0  0  0  0  0  0  0  0  0  0
    3.3617    3.0453    0.0000 H   0  0  0  0  0  0  0  0  0  0  0  0
    0.8578    2.6401    0.0000 H   0  0  0  0  0  0  0  0  0  0  0  0
    2.3907    1.0037    0.0000 H   0  0  0  0  0  0  0  0  0  0  0  0
    2.3907   -1.0037    0.0000 H   0  0  0  0  0  0  0  0  0  0  0  0
    0.5464   -1.9960    0.0000 H   0  0  0  0  0  0  0  0  0  0  0  0
    1.3755   -2.4744    0.0000 H   0  0  0  0  0  0  0  0  0  0  0  0
    2.5414   -3.0800    0.0000 H   0  0  0  0  0  0  0  0  0  0  0  0
    3.5415   -2.6657    0.0000 H   0  0  0  0  0  0  0  0  0  0  0  0
    4.4841   -1.9294    0.0000 H   0  0  0  0  0  0  0  0  0  0  0  0
    5.1782    0.5982    0.0000 H   0  0  0  0  0  0  0  0  0  0  0  0
    6.1200   -1.6540    0.0000 H   0  0  0  0  0  0  0  0  0  0  0  0
    5.9814    0.3290    0.0000 H   0  0  0  0  0  0  0  0  0  0  0  0
    4.1687   -2.0333    0.0000 H   0  0  0  0  0  0  0  0  0  0  0  0
   -1.3442   -2.2172    0.0000 H   0  0  0  0  0  0  0  0  0  0  0  0
   -2.5241   -0.5932    0.0000 H   0  0  0  0  0  0  0  0  0  0  0  0
  1  2  1  0
  2  3  1  0
  2  4  1  0
  4  5  1  0
  5  6  1  0
  6  7  1  0
  7  8  1  0
  8  9  1  0
  9 10  1  0
 10 11  1  0
 11 12  1  0
 12 13  1  0
 13 14  1  0
 10 15  1  0
 15 16  1  0
 13  6  1  0
 16  8  1  0
  1 17  1  0
  1 18  1  0
  1 19  1  0
  2 20  1  0
  3 21  1  0
  4 22  1  0
  4 23  1  0
  5 24  1  0
  5 25  1  0
  6 26  1  0
  8 27  1  0
  9 28  1  0
  9 29  1  0
 10 30  1  0
 11 31  1  0
 11 32  1  0
 12 33  1  0
 12 34  1  0
 13 35  1  0
 14 36  1  0
 14 37  1  0
 14 38  1  0
 15 39  1  0
 15 40  1  0
M  RAD  2   7   2  16   2
M  END
$$$$
