
     RDKit          2D

 58 61  0  0  0  0  0  0  0  0999 V2000
   -1.4862    4.8642    0.0000 C   0  0  0  0  0  0  0  0  0  0  0  0
   -0.2575    4.0038    0.0000 C   0  0  0  0  0  0  0  0  0  0  0  0
   -0.3882    2.5095    0.0000 C   0  0  0  0  0  0  0  0  0  0  0  0
   -1.8371    2.8978    0.0000 C   0  0  0  0  0  0  0  0  0  0  0  0
   -2.8978    1.8371    0.0000 C   0  0  0  0  0  0  0  0  0  0  0  0
   -4.2572    1.2032    0.0000 C   0  0  0  0  0  0  0  0  0  0  0  0
   -5.6167    0.5693    0.0000 O   0  0  0  0  0  0  0  0  0  0  0  0
   -2.5095    0.3882    0.0000 C   0  0  0  0  0  0  0  0  0  0  0  0
   -2.6403   -1.1061    0.0000 O   0  0  0  0  0  0  0  0  0  0  0  0
   -1.0607    0.0000    0.0000 C   0  0  0  0  0  0  0  0  0  0  0  0
   -0.0000   -1.0607    0.0000 C   0  0  0  0  0  0  0  0  0  0  0  0
   -1.0607   -2.1213    0.0000 C   0  0  0  0  0  0  0  0  0  0  0  0
   -0.0000   -3.1820    0.0000 C   0  0  0  0  0  0  0  0  0  0  0  0
   -1.0607   -4.2426    0.0000 C   0  0  0  0  0  0  0  0  0  0  0  0
   -2.1213   -3.1820    0.0000 C   0  0  0  0  0  0  0  0  0  0  0  0
   -3.1820   -4.2426    0.0000 O   0  0  0  0  0  0  0  0  0  0  0  0
   -3.1820   -2.1213    0.0000 C   0  0  0  0  0  0  0  0  0  0  0  0
   -4.2426   -1.0607    0.0000 C   0  0  0  0  0  0  0  0  0  0  0  0
   -5.3033   -2.1213    0.0000 C   0  0  0  0  0  0  0  0  0  0  0  0
   -6.3640   -1.0607    0.0000 C   0  0  0  0  0  0  0  0  0  0  0  0
   -7.4246   -2.1213    0.0000 C   0  0  0  0  0  0  0  0  0  0  0  0
   -5.3033   -0.0000    0.0000 C   0  0  0  0  0  0  0  0  0  0  0  0
    1.0607    0.0000    0.0000 C   0  0  0  0  0  0  0  0  0  0  0  0
    0.0000    1.0607    0.0000 C   0  0  0  0  0  0  0  0  0  0  0  0
   -1.3555    6.3585    0.0000 H   0  0  0  0  0  0  0  0  0  0  0  0
   -2.9128    4.4007    0.0000 H   0  0  0  0  0  0  0  0  0  0  0  0
    1.1020    4.6378    0.0000 H   0  0  0  0  0  0  0  0  0  0  0  0
    1.0790    2.8215    0.0000 H   0  0  0  0  0  0  0  0  0  0  0  0
   -1.5510    4.3702    0.0000 H   0  0  0  0  0  0  0  0  0  0  0  0
   -3.1616    3.6019    0.0000 H   0  0  0  0  0  0  0  0  0  0  0  0
   -3.7581    3.0658    0.0000 H   0  0  0  0  0  0  0  0  0  0  0  0
   -3.7938   -0.2234    0.0000 H   0  0  0  0  0  0  0  0  0  0  0  0
   -4.8912    2.5627    0.0000 H   0  0  0  0  0  0  0  0  0  0  0  0
   -6.7314    1.5730    0.0000 H   0  0  0  0  0  0  0  0  0  0  0  0
   -4.0038    0.2575    0.0000 H   0  0  0  0  0  0  0  0  0  0  0  0
   -4.1127   -1.3922    0.0000 H   0  0  0  0  0  0  0  0  0  0  0  0
   -1.2952   -1.4816    0.0000 H   0  0  0  0  0  0  0  0  0  0  0  0
    1.1820   -1.9841    0.0000 H   0  0  0  0  0  0  0  0  0  0  0  0
    0.2251   -2.8938    0.0000 H   0  0  0  0  0  0  0  0  0  0  0  0
    1.0607   -4.2426    0.0000 H   0  0  0  0  0  0  0  0  0  0  0  0
    1.1820   -2.2585    0.0000 H   0  0  0  0  0  0  0  0  0  0  0  0
   -2.1213   -5.3033    0.0000 H   0  0  0  0  0  0  0  0  0  0  0  0
   -0.0000   -5.3033    0.0000 H   0  0  0  0  0  0  0  0  0  0  0  0
   -4.6818   -4.2165    0.0000 H   0  0  0  0  0  0  0  0  0  0  0  0
   -4.2426   -3.1820    0.0000 H   0  0  0  0  0  0  0  0  0  0  0  0
   -1.8116   -1.5113    0.0000 H   0  0  0  0  0  0  0  0  0  0  0  0
   -5.0151   -2.3465    0.0000 H   0  0  0  0  0  0  0  0  0  0  0  0
   -6.2268   -3.3034    0.0000 H   0  0  0  0  0  0  0  0  0  0  0  0
   -4.5308   -3.4071    0.0000 H   0  0  0  0  0  0  0  0  0  0  0  0
   -7.4246   -0.0000    0.0000 H   0  0  0  0  0  0  0  0  0  0  0  0
   -8.4853   -1.0607    0.0000 H   0  0  0  0  0  0  0  0  0  0  0  0
   -6.5012   -3.3034    0.0000 H   0  0  0  0  0  0  0  0  0  0  0  0
   -8.4853   -3.1820    0.0000 H   0  0  0  0  0  0  0  0  0  0  0  0
   -4.6933    1.3704    0.0000 H   0  0  0  0  0  0  0  0  0  0  0  0
   -6.6737    0.6100    0.0000 H   0  0  0  0  0  0  0  0  0  0  0  0
    2.1213    1.0607    0.0000 H   0  0  0  0  0  0  0  0  0  0  0  0
    2.1213   -1.0607    0.0000 H   0  0  0  0  0  0  0  0  0  0  0  0
    1.3808    1.6467    0.0000 H   0  0  0  0  0  0  0  0  0  0  0  0
  1  2  2  0
  2  3  1  0
  3  4  1  0
  4  5  1  0
  5  6  1  0
  6  7  1  0
  5  8  1  0
  8  9  1  0
  8 10  1  0
 10 11  1  0
 11 12  1  0
 12 13  1  0
 13 14  1  0
 14 15  1  0
 15 16  1  6
 15 17  1  0
 17 18  1  0
 18 19  1  0
 19 20  1  0
 20 21  1  0
 20 22  1  0
 11 23  1  0
 23 24  1  0
 24  3  1  0
 24 10  1  0
 15 12  1  0
 22 18  1  0
  1 25  1  0
  1 26  1  0
  2 27  1  0
  3 28  1  6
  4 29  1  0
  4 30  1  0
  5 31  1  6
  6 32  1  0
  6 33  1  0
  7 34  1  0
  8 35  1  1
  9 36  1  0
 10 37  1  6
 11 38  1  1
 12 39  1  1
 13 40  1  0
 13 41  1  0
 14 42  1  0
 14 43  1  0
 16 44  1  0
 17 45  1  0
 17 46  1  0
 18 47  1  6
 19 48  1  0
 19 49  1  0
 20 50  1  6
 21 51  1  0
 21 52  1  0
 21 53  1  0
 22 54  1  0
 22 55  1  0
 23 56  1  0
 23 57  1  0
 24 58  1  6
M  END
$$$$
