
     RDKit          2D

 75 81  0  0  0  0  0  0  0  0999 V2000
    6.8063    3.5793    0.0000 C   0  0  0  0  0  0  0  0  0  0  0  0
    5.3145    3.7361    0.0000 C   0  0  0  0  0  0  0  0  0  0  0  0
    4.7044    5.1064    0.0000 C   0  0  0  0  0  0  0  0  0  0  0  0
    4.0943    6.4767    0.0000 C   0  0  0  0  0  0  0  0  0  0  0  0
    3.4842    7.8470    0.0000 C   0  0  0  0  0  0  0  0  0  0  0  0
    4.4329    2.5225    0.0000 C   0  0  0  0  0  0  0  0  0  0  0  0
    3.5512    1.3090    0.0000 C   0  0  0  0  0  0  0  0  0  0  0  0
    2.2030    1.9666    0.0000 C   0  0  0  0  0  0  0  0  0  0  0  0
    2.3076    0.4702    0.0000 C   0  0  0  0  0  0  0  0  0  0  0  0
    2.9177   -0.9001    0.0000 C   0  0  0  0  0  0  0  0  0  0  0  0
    3.5278   -2.2704    0.0000 C   0  0  0  0  0  0  0  0  0  0  0  0
    4.2088   -0.5054    0.0000 F   0  0  0  0  0  0  0  0  0  0  0  0
    1.5474   -1.5102    0.0000 C   0  0  0  0  0  0  0  0  0  0  0  0
    2.1575   -2.8805    0.0000 C   0  0  0  0  0  0  0  0  0  0  0  0
    0.7872   -3.4906    0.0000 C   0  0  0  0  0  0  0  0  0  0  0  0
    0.2496   -4.8910    0.0000 C   0  0  0  0  0  0  0  0  0  0  0  0
    0.1771   -2.1203    0.0000 C   0  0  0  0  0  0  0  0  0  0  0  0
   -0.4330   -0.7500    0.0000 C   0  0  0  0  0  0  0  0  0  0  0  0
   -1.8596   -1.2135    0.0000 C   0  0  0  0  0  0  0  0  0  0  0  0
   -2.7413    0.0000    0.0000 C   0  0  0  0  0  0  0  0  0  0  0  0
   -4.2228   -0.2347    0.0000 C   0  0  0  0  0  0  0  0  0  0  0  0
   -5.4363    0.6470    0.0000 C   0  0  0  0  0  0  0  0  0  0  0  0
   -5.6710    2.1286    0.0000 C   0  0  0  0  0  0  0  0  0  0  0  0
   -4.7893    3.3421    0.0000 C   0  0  0  0  0  0  0  0  0  0  0  0
   -3.3078    3.5767    0.0000 C   0  0  0  0  0  0  0  0  0  0  0  0
   -1.9375    4.1868    0.0000 C   0  0  0  0  0  0  0  0  0  0  0  0
   -0.7239    3.3052    0.0000 C   0  0  0  0  0  0  0  0  0  0  0  0
   -2.0942    2.6951    0.0000 C   0  0  0  0  0  0  0  0  0  0  0  0
   -1.8596    1.2135    0.0000 C   0  0  0  0  0  0  0  0  0  0  0  0
   -0.7190    2.1877    0.0000 C   0  0  0  0  0  0  0  0  0  0  0  0
   -0.4330    0.7500    0.0000 C   0  0  0  0  0  0  0  0  0  0  0  0
    0.8660    0.0000    0.0000 O   0  0  0  0  0  0  0  0  0  0  0  0
    7.6880    4.7928    0.0000 H   0  0  0  0  0  0  0  0  0  0  0  0
    7.4164    2.2089    0.0000 H   0  0  0  0  0  0  0  0  0  0  0  0
    6.0747    5.7165    0.0000 H   0  0  0  0  0  0  0  0  0  0  0  0
    3.3341    4.4963    0.0000 H   0  0  0  0  0  0  0  0  0  0  0  0
    5.4646    7.0868    0.0000 H   0  0  0  0  0  0  0  0  0  0  0  0
    2.7240    5.8666    0.0000 H   0  0  0  0  0  0  0  0  0  0  0  0
    2.8741    9.2173    0.0000 H   0  0  0  0  0  0  0  0  0  0  0  0
    2.1139    7.2369    0.0000 H   0  0  0  0  0  0  0  0  0  0  0  0
    4.8545    8.4571    0.0000 H   0  0  0  0  0  0  0  0  0  0  0  0
    3.4456    3.4432    0.0000 H   0  0  0  0  0  0  0  0  0  0  0  0
    5.6464    1.6408    0.0000 H   0  0  0  0  0  0  0  0  0  0  0  0
    4.6003    0.4594    0.0000 H   0  0  0  0  0  0  0  0  0  0  0  0
    0.7112    2.1233    0.0000 H   0  0  0  0  0  0  0  0  0  0  0  0
    2.4141    3.2999    0.0000 H   0  0  0  0  0  0  0  0  0  0  0  0
    1.5164    0.5674    0.0000 H   0  0  0  0  0  0  0  0  0  0  0  0
    4.1379   -3.6407    0.0000 H   0  0  0  0  0  0  0  0  0  0  0  0
    4.8982   -1.6603    0.0000 H   0  0  0  0  0  0  0  0  0  0  0  0
    2.3459   -3.1940    0.0000 H   0  0  0  0  0  0  0  0  0  0  0  0
    1.1089   -0.0757    0.0000 H   0  0  0  0  0  0  0  0  0  0  0  0
    2.7676   -4.2508    0.0000 H   0  0  0  0  0  0  0  0  0  0  0  0
    3.6347   -2.6201    0.0000 H   0  0  0  0  0  0  0  0  0  0  0  0
   -1.2319   -5.1257    0.0000 H   0  0  0  0  0  0  0  0  0  0  0  0
    1.1936   -6.0567    0.0000 H   0  0  0  0  0  0  0  0  0  0  0  0
    1.3591   -1.1968    0.0000 H   0  0  0  0  0  0  0  0  0  0  0  0
   -1.2495   -2.5838    0.0000 H   0  0  0  0  0  0  0  0  0  0  0  0
   -2.9386   -2.2556    0.0000 H   0  0  0  0  0  0  0  0  0  0  0  0
   -3.3153   -1.3858    0.0000 H   0  0  0  0  0  0  0  0  0  0  0  0
   -5.2648   -1.3137    0.0000 H   0  0  0  0  0  0  0  0  0  0  0  0
   -3.9624   -1.7119    0.0000 H   0  0  0  0  0  0  0  0  0  0  0  0
   -6.9361    0.6208    0.0000 H   0  0  0  0  0  0  0  0  0  0  0  0
   -6.1406   -0.6774    0.0000 H   0  0  0  0  0  0  0  0  0  0  0  0
   -6.7500    3.1705    0.0000 H   0  0  0  0  0  0  0  0  0  0  0  0
   -7.1055    1.6900    0.0000 H   0  0  0  0  0  0  0  0  0  0  0  0
   -4.6325    4.8339    0.0000 H   0  0  0  0  0  0  0  0  0  0  0  0
   -6.1137    4.0463    0.0000 H   0  0  0  0  0  0  0  0  0  0  0  0
   -3.7338    5.0150    0.0000 H   0  0  0  0  0  0  0  0  0  0  0  0
   -1.7807    5.6786    0.0000 H   0  0  0  0  0  0  0  0  0  0  0  0
    0.3551    4.3472    0.0000 H   0  0  0  0  0  0  0  0  0  0  0  0
    0.1149    2.0616    0.0000 H   0  0  0  0  0  0  0  0  0  0  0  0
    0.4216    3.1619    0.0000 H   0  0  0  0  0  0  0  0  0  0  0  0
    0.5022    1.3167    0.0000 H   0  0  0  0  0  0  0  0  0  0  0  0
   -1.3882    3.5301    0.0000 H   0  0  0  0  0  0  0  0  0  0  0  0
    0.1771    2.1203    0.0000 H   0  0  0  0  0  0  0  0  0  0  0  0
  1  2  2  3
  2  3  1  0
  3  4  1  0
  4  5  1  0
  2  6  1  0
  6  7  1  0
  7  8  1  0
  8  9  1  0
  9 10  1  0
 10 11  1  0
 10 12  1  0
 10 13  1  0
 13 14  1  0
 14 15  1  0
 15 16  2  3
 15 17  1  0
 17 18  1  0
 18 19  1  0
 19 20  1  0
 20 21  1  0
 21 22  1  0
 22 23  1  0
 23 24  1  0
 24 25  1  0
 25 26  1  0
 26 27  1  0
 27 28  1  0
 28 29  1  0
 29 30  1  0
 29 31  1  0
 31 32  1  0
  9  7  1  0
 17 13  1  0
 31 18  1  0
 32 18  1  0
 29 20  1  0
 28 25  1  0
 28 26  1  0
  1 33  1  0
  1 34  1  0
  3 35  1  0
  3 36  1  0
  4 37  1  0
  4 38  1  0
  5 39  1  0
  5 40  1  0
  5 41  1  0
  6 42  1  0
  6 43  1  0
  7 44  1  0
  8 45  1  0
  8 46  1  0
  9 47  1  0
 11 48  1  0
 11 49  1  0
 11 50  1  0
 13 51  1  0
 14 52  1  0
 14 53  1  0
 16 54  1  0
 16 55  1  0
 17 56  1  0
 19 57  1  0
 19 58  1  0
 20 59  1  0
 21 60  1  0
 21 61  1  0
 22 62  1  0
 22 63  1  0
 23 64  1  0
 23 65  1  0
 24 66  1  0
 24 67  1  0
 25 68  1  0
 26 69  1  0
 27 70  1  0
 27 71  1  0
 30 72  1  0
 30 73  1  0
 30 74  1  0
 31 75  1  0
M  END
$$$$
