
     RDKit          2D

 41 42  0  0  0  0  0  0  0  0999 V2000
   -1.6176   11.6762    0.0000 C   0  0  0  0  0  0  0  0  0  0  0  0
   -1.9635   10.2167    0.0000 C   0  0  0  0  0  0  0  0  0  0  0  0
   -2.3094    8.7571    0.0000 C   0  0  0  0  0  0  0  0  0  0  0  0
   -2.6554    7.2975    0.0000 C   0  0  0  0  0  0  0  0  0  0  0  0
   -3.0013    5.8380    0.0000 N   0  0  0  0  0  0  0  0  0  0  0  0
   -1.9102    4.8086    0.0000 C   0  0  0  0  0  0  0  0  0  0  0  0
   -3.2093    4.0586    0.0000 N   0  0  0  0  0  0  0  0  0  0  0  0
   -3.7223    2.6491    0.0000 C   0  0  0  0  0  0  0  0  0  0  0  0
   -3.2093    1.2395    0.0000 C   0  0  0  0  0  0  0  0  0  0  0  0
   -4.3583    0.2753    0.0000 O   0  0  0  0  0  0  0  0  0  0  0  0
   -1.9102    0.4895    0.0000 C   0  0  0  0  0  0  0  0  0  0  0  0
   -0.4330    0.7500    0.0000 C   0  0  0  0  0  0  0  0  0  0  0  0
    0.5312    1.8991    0.0000 C   0  0  0  0  0  0  0  0  0  0  0  0
    0.5312    3.3991    0.0000 C   0  0  0  0  0  0  0  0  0  0  0  0
   -0.4330    4.5481    0.0000 O   0  0  0  0  0  0  0  0  0  0  0  0
    0.8660    0.0000    0.0000 C   0  0  0  0  0  0  0  0  0  0  0  0
   -0.4330   -0.7500    0.0000 C   0  0  0  0  0  0  0  0  0  0  0  0
   -1.2717   13.1358    0.0000 H   0  0  0  0  0  0  0  0  0  0  0  0
   -3.0772   12.0222    0.0000 H   0  0  0  0  0  0  0  0  0  0  0  0
   -0.1580   11.3303    0.0000 H   0  0  0  0  0  0  0  0  0  0  0  0
   -3.4231   10.5626    0.0000 H   0  0  0  0  0  0  0  0  0  0  0  0
   -0.5039    9.8707    0.0000 H   0  0  0  0  0  0  0  0  0  0  0  0
   -0.8499    8.4112    0.0000 H   0  0  0  0  0  0  0  0  0  0  0  0
   -3.7690    9.1030    0.0000 H   0  0  0  0  0  0  0  0  0  0  0  0
   -4.1149    7.6435    0.0000 H   0  0  0  0  0  0  0  0  0  0  0  0
   -1.1645    7.1321    0.0000 H   0  0  0  0  0  0  0  0  0  0  0  0
   -4.1990    5.6340    0.0000 H   0  0  0  0  0  0  0  0  0  0  0  0
   -1.0787    6.0570    0.0000 H   0  0  0  0  0  0  0  0  0  0  0  0
   -4.2283    4.7203    0.0000 H   0  0  0  0  0  0  0  0  0  0  0  0
   -4.9255    1.7533    0.0000 H   0  0  0  0  0  0  0  0  0  0  0  0
   -4.9255    3.5448    0.0000 H   0  0  0  0  0  0  0  0  0  0  0  0
   -1.4054   -0.9230    0.0000 H   0  0  0  0  0  0  0  0  0  0  0  0
   -3.0013   -0.5398    0.0000 H   0  0  0  0  0  0  0  0  0  0  0  0
    2.0099    2.1509    0.0000 H   0  0  0  0  0  0  0  0  0  0  0  0
    1.0471    1.2914    0.0000 H   0  0  0  0  0  0  0  0  0  0  0  0
    1.3554    4.6523    0.0000 H   0  0  0  0  0  0  0  0  0  0  0  0
    2.0099    3.1472    0.0000 H   0  0  0  0  0  0  0  0  0  0  0  0
    1.4490    0.5436    0.0000 H   0  0  0  0  0  0  0  0  0  0  0  0
    1.8302   -1.1491    0.0000 H   0  0  0  0  0  0  0  0  0  0  0  0
    0.0800   -2.1595    0.0000 H   0  0  0  0  0  0  0  0  0  0  0  0
   -1.8675   -1.1886    0.0000 H   0  0  0  0  0  0  0  0  0  0  0  0
  1  2  1  0
  2  3  1  0
  3  4  1  0
  4  5  1  0
  5  6  1  0
  6  7  1  0
  7  8  1  0
  8  9  1  0
  9 10  2  0
  9 11  1  0
 11 12  1  0
 12 13  1  0
 13 14  1  0
 14 15  1  0
 12 16  1  0
 16 17  1  0
 15  6  1  0
 17 12  1  0
  1 18  1  0
  1 19  1  0
  1 20  1  0
  2 21  1  0
  2 22  1  0
  3 23  1  0
  3 24  1  0
  4 25  1  0
  4 26  1  0
  5 27  1  0
  6 28  1  1
  7 29  1  0
  8 30  1  0
  8 31  1  0
 11 32  1  0
 11 33  1  0
 13 34  1  0
 13 35  1  0
 14 36  1  0
 14 37  1  0
 16 38  1  0
 16 39  1  0
 17 40  1  0
 17 41  1  0
M  END
$$$$
