
     RDKit          2D

 77 85  0  0  0  0  0  0  0  0999 V2000
   10.8787   -6.2677    0.0000 C   0  0  0  0  0  0  0  0  0  0  0  0
    9.4298   -5.8795    0.0000 C   0  0  0  0  0  0  0  0  0  0  0  0
    7.9809   -5.4912    0.0000 C   0  0  0  0  0  0  0  0  0  0  0  0
    6.5320   -5.1030    0.0000 C   0  0  0  0  0  0  0  0  0  0  0  0
    6.6628   -3.6087    0.0000 C   0  0  0  0  0  0  0  0  0  0  0  0
    5.3033   -4.2426    0.0000 C   0  0  0  0  0  0  0  0  0  0  0  0
    4.2426   -5.3033    0.0000 C   0  0  0  0  0  0  0  0  0  0  0  0
    3.1820   -6.3640    0.0000 C   0  0  0  0  0  0  0  0  0  0  0  0
    2.5481   -7.7234    0.0000 O   0  0  0  0  0  0  0  0  0  0  0  0
    4.0423   -7.5927    0.0000 C   0  0  0  0  0  0  0  0  0  0  0  0
    4.4306   -9.0416    0.0000 C   0  0  0  0  0  0  0  0  0  0  0  0
    4.8188  -10.4905    0.0000 C   0  0  0  0  0  0  0  0  0  0  0  0
    5.6792  -11.7192    0.0000 C   0  0  0  0  0  0  0  0  0  0  0  0
    6.3131  -10.3597    0.0000 C   0  0  0  0  0  0  0  0  0  0  0  0
    3.1820   -4.2426    0.0000 C   0  0  0  0  0  0  0  0  0  0  0  0
    2.1213   -3.1820    0.0000 C   0  0  0  0  0  0  0  0  0  0  0  0
    1.0607   -2.1213    0.0000 C   0  0  0  0  0  0  0  0  0  0  0  0
   -0.0000   -1.0607    0.0000 C   0  0  0  0  0  0  0  0  0  0  0  0
    1.0607    0.0000    0.0000 C   0  0  0  0  0  0  0  0  0  0  0  0
    0.0000    1.0607    0.0000 C   0  0  0  0  0  0  0  0  0  0  0  0
   -1.0607    0.0000    0.0000 Si  0  0  0  0  0  4  0  0  0  0  0  0
   -2.1213   -1.0607    0.0000 O   0  0  0  0  0  0  0  0  0  0  0  0
    2.1213   -5.3033    0.0000 C   0  0  0  0  0  0  0  0  0  0  0  0
    2.5095   -6.7522    0.0000 O   0  0  0  0  0  0  0  0  0  0  0  0
    1.0607   -6.3640    0.0000 C   0  0  0  0  0  0  0  0  0  0  0  0
    0.6724   -4.9151    0.0000 C   0  0  0  0  0  0  0  0  0  0  0  0
    0.8032   -3.4208    0.0000 C   0  0  0  0  0  0  0  0  0  0  0  0
   -0.6457   -3.0326    0.0000 C   0  0  0  0  0  0  0  0  0  0  0  0
   -1.0340   -1.5837    0.0000 C   0  0  0  0  0  0  0  0  0  0  0  0
   -2.5282   -1.7144    0.0000 C   0  0  0  0  0  0  0  0  0  0  0  0
   -3.8877   -2.3483    0.0000 C   0  0  0  0  0  0  0  0  0  0  0  0
   -2.6590   -3.2087    0.0000 C   0  0  0  0  0  0  0  0  0  0  0  0
    0.4149   -1.9719    0.0000 C   0  0  0  0  0  0  0  0  0  0  0  0
   12.3276   -6.6559    0.0000 H   0  0  0  0  0  0  0  0  0  0  0  0
   11.2669   -4.8188    0.0000 H   0  0  0  0  0  0  0  0  0  0  0  0
   10.4905   -7.7166    0.0000 H   0  0  0  0  0  0  0  0  0  0  0  0
    9.8180   -4.4306    0.0000 H   0  0  0  0  0  0  0  0  0  0  0  0
    9.0416   -7.3284    0.0000 H   0  0  0  0  0  0  0  0  0  0  0  0
    7.5927   -6.9401    0.0000 H   0  0  0  0  0  0  0  0  0  0  0  0
    8.5429   -4.1005    0.0000 H   0  0  0  0  0  0  0  0  0  0  0  0
    6.2459   -6.5755    0.0000 H   0  0  0  0  0  0  0  0  0  0  0  0
    6.2745   -2.1598    0.0000 H   0  0  0  0  0  0  0  0  0  0  0  0
    8.1300   -3.2968    0.0000 H   0  0  0  0  0  0  0  0  0  0  0  0
    4.5991   -2.9182    0.0000 H   0  0  0  0  0  0  0  0  0  0  0  0
    5.3033   -6.3640    0.0000 H   0  0  0  0  0  0  0  0  0  0  0  0
    1.7816   -5.8265    0.0000 H   0  0  0  0  0  0  0  0  0  0  0  0
    5.5148   -7.3066    0.0000 H   0  0  0  0  0  0  0  0  0  0  0  0
    2.9817   -9.4298    0.0000 H   0  0  0  0  0  0  0  0  0  0  0  0
    5.8213   -8.4796    0.0000 H   0  0  0  0  0  0  0  0  0  0  0  0
    3.4593  -11.1244    0.0000 H   0  0  0  0  0  0  0  0  0  0  0  0
    4.6185  -12.7799    0.0000 H   0  0  0  0  0  0  0  0  0  0  0  0
    6.9079  -12.5796    0.0000 H   0  0  0  0  0  0  0  0  0  0  0  0
    7.7620  -10.7480    0.0000 H   0  0  0  0  0  0  0  0  0  0  0  0
    6.6250   -8.8925    0.0000 H   0  0  0  0  0  0  0  0  0  0  0  0
    4.1054   -3.0606    0.0000 H   0  0  0  0  0  0  0  0  0  0  0  0
    3.1820   -2.1213    0.0000 H   0  0  0  0  0  0  0  0  0  0  0  0
    0.8355   -3.9545    0.0000 H   0  0  0  0  0  0  0  0  0  0  0  0
    2.3465   -1.3488    0.0000 H   0  0  0  0  0  0  0  0  0  0  0  0
   -0.2251   -2.8938    0.0000 H   0  0  0  0  0  0  0  0  0  0  0  0
   -1.2858   -1.8331    0.0000 H   0  0  0  0  0  0  0  0  0  0  0  0
    2.1213    1.0607    0.0000 H   0  0  0  0  0  0  0  0  0  0  0  0
    2.3465   -0.7725    0.0000 H   0  0  0  0  0  0  0  0  0  0  0  0
   -1.0607    2.1213    0.0000 H   0  0  0  0  0  0  0  0  0  0  0  0
    1.0607    2.1213    0.0000 H   0  0  0  0  0  0  0  0  0  0  0  0
   -2.1213    1.0607    0.0000 H   0  0  0  0  0  0  0  0  0  0  0  0
   -3.5121   -0.4987    0.0000 H   0  0  0  0  0  0  0  0  0  0  0  0
   -0.0000   -7.4246    0.0000 H   0  0  0  0  0  0  0  0  0  0  0  0
   -0.8219   -5.0458    0.0000 H   0  0  0  0  0  0  0  0  0  0  0  0
    2.2214   -2.9324    0.0000 H   0  0  0  0  0  0  0  0  0  0  0  0
   -1.5692   -4.2146    0.0000 H   0  0  0  0  0  0  0  0  0  0  0  0
   -1.2687   -0.1021    0.0000 H   0  0  0  0  0  0  0  0  0  0  0  0
   -3.0902   -0.3236    0.0000 H   0  0  0  0  0  0  0  0  0  0  0  0
   -4.7481   -1.1196    0.0000 H   0  0  0  0  0  0  0  0  0  0  0  0
   -4.9484   -3.4090    0.0000 H   0  0  0  0  0  0  0  0  0  0  0  0
   -3.2929   -4.5682    0.0000 H   0  0  0  0  0  0  0  0  0  0  0  0
   -1.2682   -3.7706    0.0000 H   0  0  0  0  0  0  0  0  0  0  0  0
    1.4756   -0.9112    0.0000 H   0  0  0  0  0  0  0  0  0  0  0  0
  1  2  1  0
  2  3  1  0
  3  4  1  0
  4  5  1  0
  5  6  1  0
  6  7  1  0
  7  8  1  0
  8  9  1  0
  9 10  1  0
 10 11  1  0
 11 12  1  0
 12 13  1  0
 13 14  1  0
  7 15  1  0
 15 16  1  0
 16 17  1  0
 17 18  1  0
 18 19  1  0
 19 20  1  0
 20 21  1  0
 21 22  1  0
 15 23  1  0
 23 24  1  0
 24 25  1  0
 25 26  1  0
 26 27  1  0
 27 28  1  0
 28 29  1  0
 29 30  1  0
 30 31  1  0
 31 32  1  0
 29 33  1  0
  6  4  1  0
 10  8  1  0
 14 12  1  0
 21 18  1  0
 25 23  1  0
 33 27  1  0
 26 23  1  0
 33 28  1  0
 32 30  1  0
  1 34  1  0
  1 35  1  0
  1 36  1  0
  2 37  1  0
  2 38  1  0
  3 39  1  0
  3 40  1  0
  4 41  1  0
  5 42  1  0
  5 43  1  0
  6 44  1  0
  7 45  1  0
  8 46  1  0
 10 47  1  0
 11 48  1  0
 11 49  1  0
 12 50  1  0
 13 51  1  0
 13 52  1  0
 14 53  1  0
 14 54  1  0
 15 55  1  0
 16 56  1  0
 16 57  1  0
 17 58  1  0
 17 59  1  0
 18 60  1  0
 19 61  1  0
 19 62  1  0
 20 63  1  0
 20 64  1  0
 21 65  1  0
 22 66  1  0
 25 67  1  0
 26 68  1  0
 27 69  1  0
 28 70  1  0
 29 71  1  0
 30 72  1  0
 31 73  1  0
 31 74  1  0
 32 75  1  0
 32 76  1  0
 33 77  1  0
M  END
$$$$
