
     RDKit          2D

 34 38  0  0  0  0  0  0  0  0999 V2000
   -5.9032    3.7586    0.0000 C   0  0  0  0  0  0  0  0  0  0  0  0
   -4.4260    3.4982    0.0000 C   0  0  0  0  0  0  0  0  0  0  0  0
   -2.9488    3.2377    0.0000 S   0  0  0  0  0  0  0  0  0  0  0  0
   -3.2093    1.7605    0.0000 C   0  0  0  0  0  0  0  0  0  0  0  0
   -1.7321    1.5000    0.0000 C   0  0  0  0  0  0  0  0  0  0  0  0
   -1.7321    0.0000    0.0000 C   0  0  0  0  0  0  0  0  0  0  0  0
   -0.4330   -0.7500    0.0000 C   0  0  0  0  0  0  0  0  0  0  0  0
    0.3170   -2.0490    0.0000 C   0  0  0  0  0  0  0  0  0  0  0  0
    1.0670   -3.3481    0.0000 C   0  0  0  0  0  0  0  0  0  0  0  0
    1.8170   -4.6471    0.0000 N   0  0  0  0  0  0  0  0  0  0  0  0
    1.6160   -1.2990    0.0000 C   0  0  0  0  0  0  0  0  0  0  0  0
    0.8660    0.0000    0.0000 C   0  0  0  0  0  0  0  0  0  0  0  0
   -0.4330    0.7500    0.0000 C   0  0  0  0  0  0  0  0  0  0  0  0
   -4.6865    2.0209    0.0000 C   0  0  0  0  0  0  0  0  0  0  0  0
   -4.9469    0.5437    0.0000 N   0  0  0  0  0  0  0  0  0  0  0  0
   -6.1637    2.2814    0.0000 O   0  0  0  0  0  0  0  0  0  0  0  0
   -7.3804    4.0191    0.0000 H   0  0  0  0  0  0  0  0  0  0  0  0
   -5.6427    5.2358    0.0000 H   0  0  0  0  0  0  0  0  0  0  0  0
   -6.2275    3.0304    0.0000 H   0  0  0  0  0  0  0  0  0  0  0  0
   -4.1655    4.9754    0.0000 H   0  0  0  0  0  0  0  0  0  0  0  0
   -3.2877    0.2625    0.0000 H   0  0  0  0  0  0  0  0  0  0  0  0
   -1.2190    2.9095    0.0000 H   0  0  0  0  0  0  0  0  0  0  0  0
   -2.9300   -0.9028    0.0000 H   0  0  0  0  0  0  0  0  0  0  0  0
   -0.9821   -2.7990    0.0000 H   0  0  0  0  0  0  0  0  0  0  0  0
   -0.2321   -4.0981    0.0000 H   0  0  0  0  0  0  0  0  0  0  0  0
    2.4478   -2.7620    0.0000 H   0  0  0  0  0  0  0  0  0  0  0  0
    1.0670   -5.9462    0.0000 H   0  0  0  0  0  0  0  0  0  0  0  0
    3.3170   -4.6471    0.0000 H   0  0  0  0  0  0  0  0  0  0  0  0
    2.9151   -0.5490    0.0000 H   0  0  0  0  0  0  0  0  0  0  0  0
    2.5188   -2.4970    0.0000 H   0  0  0  0  0  0  0  0  0  0  0  0
    1.9267    1.0607    0.0000 H   0  0  0  0  0  0  0  0  0  0  0  0
   -6.3565    0.0307    0.0000 H   0  0  0  0  0  0  0  0  0  0  0  0
   -4.0653   -0.6698    0.0000 H   0  0  0  0  0  0  0  0  0  0  0  0
   -7.1279    1.1324    0.0000 H   0  0  0  0  0  0  0  0  0  0  0  0
  1  2  1  0
  2  3  1  0
  3  4  1  0
  4  5  1  0
  5  6  1  0
  6  7  1  0
  7  8  1  0
  8  9  1  0
  9 10  1  0
  8 11  1  0
 11 12  1  0
 12 13  1  0
  4 14  1  0
 14 15  1  0
 14 16  1  0
 14  2  1  0
 13  5  1  0
 13  6  1  0
 12  7  1  0
 13  7  1  0
  1 17  1  0
  1 18  1  0
  1 19  1  0
  2 20  1  0
  4 21  1  0
  5 22  1  0
  6 23  1  0
  8 24  1  0
  9 25  1  0
  9 26  1  0
 10 27  1  0
 10 28  1  0
 11 29  1  0
 11 30  1  0
 12 31  1  0
 15 32  1  0
 15 33  1  0
 16 34  1  0
M  END
$$$$
