
     RDKit          2D

 37 40  0  0  0  0  0  0  0  0999 V2000
   -4.9330    3.7500    0.0000 C   0  0  0  0  0  0  0  0  0  0  0  0
   -3.4330    3.7500    0.0000 C   0  0  0  0  0  0  0  0  0  0  0  0
   -1.9330    3.7500    0.0000 C   0  0  0  0  0  0  0  0  0  0  0  0
   -0.4330    3.7500    0.0000 C   0  0  0  0  0  0  0  0  0  0  0  0
   -1.9330    2.2500    0.0000 C   0  0  0  0  0  0  0  0  0  0  0  0
   -1.9330    0.7500    0.0000 C   0  0  0  0  0  0  0  0  0  0  0  0
   -1.9330   -0.7500    0.0000 C   0  0  0  0  0  0  0  0  0  0  0  0
    0.1160   -1.2990    0.0000 C   0  0  0  0  0  0  0  0  0  0  0  0
    1.4151   -2.0490    0.0000 C   0  0  0  0  0  0  0  0  0  0  0  0
    2.7141   -2.7990    0.0000 O   0  0  0  0  0  0  0  0  0  0  0  0
    0.8660    0.0000    0.0000 C   0  0  0  0  0  0  0  0  0  0  0  0
    1.6160    1.2990    0.0000 C   0  0  0  0  0  0  0  0  0  0  0  0
    0.3170    2.0490    0.0000 C   0  0  0  0  0  0  0  0  0  0  0  0
   -0.4330    0.7500    0.0000 C   0  0  0  0  0  0  0  0  0  0  0  0
   -0.4330   -0.7500    0.0000 C   0  0  0  0  0  0  0  0  0  0  0  0
   -6.4330    3.7500    0.0000 H   0  0  0  0  0  0  0  0  0  0  0  0
   -4.9330    5.2500    0.0000 H   0  0  0  0  0  0  0  0  0  0  0  0
   -4.9330    2.2500    0.0000 H   0  0  0  0  0  0  0  0  0  0  0  0
   -3.6159    2.2612    0.0000 H   0  0  0  0  0  0  0  0  0  0  0  0
   -3.4330    5.2500    0.0000 H   0  0  0  0  0  0  0  0  0  0  0  0
   -1.9330    5.2500    0.0000 H   0  0  0  0  0  0  0  0  0  0  0  0
    1.0558    3.9328    0.0000 H   0  0  0  0  0  0  0  0  0  0  0  0
   -0.4330    5.2500    0.0000 H   0  0  0  0  0  0  0  0  0  0  0  0
   -0.2401    2.9765    0.0000 H   0  0  0  0  0  0  0  0  0  0  0  0
   -0.8720    2.5146    0.0000 H   0  0  0  0  0  0  0  0  0  0  0  0
   -3.4218    2.0672    0.0000 H   0  0  0  0  0  0  0  0  0  0  0  0
   -3.4330    0.7500    0.0000 H   0  0  0  0  0  0  0  0  0  0  0  0
   -2.9937   -1.8107    0.0000 H   0  0  0  0  0  0  0  0  0  0  0  0
   -0.4700   -2.6798    0.0000 H   0  0  0  0  0  0  0  0  0  0  0  0
    0.6651   -3.3481    0.0000 H   0  0  0  0  0  0  0  0  0  0  0  0
    2.1651   -0.7500    0.0000 H   0  0  0  0  0  0  0  0  0  0  0  0
    2.7141   -4.2990    0.0000 H   0  0  0  0  0  0  0  0  0  0  0  0
    2.3660    2.5981    0.0000 H   0  0  0  0  0  0  0  0  0  0  0  0
    2.9151    0.5490    0.0000 H   0  0  0  0  0  0  0  0  0  0  0  0
   -0.9821    2.7990    0.0000 H   0  0  0  0  0  0  0  0  0  0  0  0
    1.2197    3.2470    0.0000 H   0  0  0  0  0  0  0  0  0  0  0  0
   -0.2243   -2.2354    0.0000 H   0  0  0  0  0  0  0  0  0  0  0  0
  1  2  1  0
  2  3  1  0
  3  4  1  0
  3  5  1  0
  5  6  1  0
  6  7  1  0
  7  8  1  0
  8  9  1  0
  9 10  1  0
  8 11  1  0
 11 12  1  0
 12 13  1  0
 13 14  1  0
 14 15  1  0
 14  6  1  0
 15  7  1  0
 14 11  1  0
 15 11  1  0
  1 16  1  0
  1 17  1  0
  1 18  1  0
  2 19  1  0
  2 20  1  0
  3 21  1  0
  4 22  1  0
  4 23  1  0
  4 24  1  0
  5 25  1  0
  5 26  1  0
  6 27  1  0
  7 28  1  0
  8 29  1  0
  9 30  1  0
  9 31  1  0
 10 32  1  0
 12 33  1  0
 12 34  1  0
 13 35  1  0
 13 36  1  0
 15 37  1  0
M  END
$$$$
