
     RDKit          2D

 31 32  0  0  0  0  0  0  0  0999 V2000
   -7.1292   -6.7500    0.0000 C   0  0  0  0  0  0  0  0  0  0  0  0
   -5.8301   -6.0000    0.0000 C   0  0  0  0  0  0  0  0  0  0  0  0
   -4.5311   -5.2500    0.0000 C   0  0  0  0  0  0  0  0  0  0  0  0
   -3.2321   -4.5000    0.0000 N   0  0  0  0  0  0  0  0  0  0  0  0
   -3.2321   -3.0000    0.0000 C   0  0  0  0  0  0  0  0  0  0  0  0
   -4.5311   -2.2500    0.0000 O   0  0  0  0  0  0  0  0  0  0  0  0
   -1.9330   -2.2500    0.0000 N   0  0  0  0  0  0  0  0  0  0  0  0
   -1.9330   -0.7500    0.0000 C   0  0  0  0  0  0  0  0  0  0  0  0
   -1.9330    0.7500    0.0000 C   0  0  0  0  0  0  0  0  0  0  0  0
   -0.4330    0.7500    0.0000 C   0  0  0  0  0  0  0  0  0  0  0  0
    0.8660    0.0000    0.0000 C   0  0  0  0  0  0  0  0  0  0  0  0
   -0.4330   -0.7500    0.0000 C   0  0  0  0  0  0  0  0  0  0  0  0
   -0.0448   -2.1989    0.0000 C   0  0  0  0  0  0  0  0  0  0  0  0
   -8.4282   -7.5000    0.0000 H   0  0  0  0  0  0  0  0  0  0  0  0
   -6.3792   -8.0490    0.0000 H   0  0  0  0  0  0  0  0  0  0  0  0
   -7.8792   -5.4510    0.0000 H   0  0  0  0  0  0  0  0  0  0  0  0
   -5.0801   -7.2990    0.0000 H   0  0  0  0  0  0  0  0  0  0  0  0
   -6.5801   -4.7010    0.0000 H   0  0  0  0  0  0  0  0  0  0  0  0
   -5.2811   -3.9510    0.0000 H   0  0  0  0  0  0  0  0  0  0  0  0
   -3.7811   -6.5490    0.0000 H   0  0  0  0  0  0  0  0  0  0  0  0
   -1.9330   -5.2500    0.0000 H   0  0  0  0  0  0  0  0  0  0  0  0
   -1.2427   -2.6486    0.0000 H   0  0  0  0  0  0  0  0  0  0  0  0
   -3.4330   -0.7500    0.0000 H   0  0  0  0  0  0  0  0  0  0  0  0
   -3.4330    0.7500    0.0000 H   0  0  0  0  0  0  0  0  0  0  0  0
   -1.9330    2.2500    0.0000 H   0  0  0  0  0  0  0  0  0  0  0  0
   -0.0448    2.1989    0.0000 H   0  0  0  0  0  0  0  0  0  0  0  0
    1.8302    1.1491    0.0000 H   0  0  0  0  0  0  0  0  0  0  0  0
    1.9631   -1.0230    0.0000 H   0  0  0  0  0  0  0  0  0  0  0  0
    0.3434   -3.6478    0.0000 H   0  0  0  0  0  0  0  0  0  0  0  0
   -0.7420   -2.5854    0.0000 H   0  0  0  0  0  0  0  0  0  0  0  0
    1.4406   -1.9902    0.0000 H   0  0  0  0  0  0  0  0  0  0  0  0
  1  2  1  0
  2  3  1  0
  3  4  1  0
  4  5  1  0
  5  6  2  0
  5  7  1  0
  7  8  1  0
  8  9  1  0
  9 10  1  0
 10 11  1  0
 11 12  1  0
 12 13  1  0
 12  8  1  0
 12 10  1  0
  1 14  1  0
  1 15  1  0
  1 16  1  0
  2 17  1  0
  2 18  1  0
  3 19  1  0
  3 20  1  0
  4 21  1  0
  7 22  1  0
  8 23  1  0
  9 24  1  0
  9 25  1  0
 10 26  1  0
 11 27  1  0
 11 28  1  0
 13 29  1  0
 13 30  1  0
 13 31  1  0
M  END
$$$$
