
     RDKit          2D

 64 71  0  0  0  0  0  0  0  0999 V2000
    2.3907   -1.0037    0.0000 C   0  0  0  0  0  0  0  0  0  0  0  0
    1.2760    0.0000    0.0000 C   0  0  0  0  0  0  0  0  0  0  0  0
    0.3943    1.2135    0.0000 C   0  0  0  0  0  0  0  0  0  0  0  0
   -1.0323    0.7500    0.0000 C   0  0  0  0  0  0  0  0  0  0  0  0
   -2.5241    0.5932    0.0000 C   0  0  0  0  0  0  0  0  0  0  0  0
   -1.3442    2.2172    0.0000 C   0  0  0  0  0  0  0  0  0  0  0  0
    0.0466    2.7791    0.0000 O   0  0  0  0  0  0  0  0  0  0  0  0
    0.2554    4.2645    0.0000 C   0  0  0  0  0  0  0  0  0  0  0  0
    1.7408    4.0558    0.0000 C   0  0  0  0  0  0  0  0  0  0  0  0
    1.9495    5.5412    0.0000 C   0  0  0  0  0  0  0  0  0  0  0  0
    0.4641    5.7499    0.0000 C   0  0  0  0  0  0  0  0  0  0  0  0
    1.3735    5.1071    0.0000 C   0  0  0  0  0  0  0  0  0  0  0  0
   -2.8432    2.1649    0.0000 C   0  0  0  0  0  0  0  0  0  0  0  0
   -3.5474    0.8405    0.0000 C   0  0  0  0  0  0  0  0  0  0  0  0
   -4.2517   -0.4840    0.0000 C   0  0  0  0  0  0  0  0  0  0  0  0
   -5.5761    0.2202    0.0000 C   0  0  0  0  0  0  0  0  0  0  0  0
   -4.8719    1.5447    0.0000 O   0  0  0  0  0  0  0  0  0  0  0  0
   -6.2803   -1.1042    0.0000 C   0  0  0  0  0  0  0  0  0  0  0  0
   -6.9845   -2.4286    0.0000 N   0  0  0  0  0  0  0  0  0  0  0  0
   -5.6601   -3.1328    0.0000 O   0  0  0  0  0  0  0  0  0  0  0  0
   -4.9559   -1.8084    0.0000 C   0  0  0  0  0  0  0  0  0  0  0  0
   -3.6381    3.4369    0.0000 C   0  0  0  0  0  0  0  0  0  0  0  0
   -2.1390    3.4893    0.0000 C   0  0  0  0  0  0  0  0  0  0  0  0
   -1.4348    4.8137    0.0000 C   0  0  0  0  0  0  0  0  0  0  0  0
   -1.0323   -0.7500    0.0000 C   0  0  0  0  0  0  0  0  0  0  0  0
   -1.9140   -1.9635    0.0000 C   0  0  0  0  0  0  0  0  0  0  0  0
   -1.0323   -3.1771    0.0000 C   0  0  0  0  0  0  0  0  0  0  0  0
    0.3943   -2.7135    0.0000 C   0  0  0  0  0  0  0  0  0  0  0  0
    0.3943   -1.2135    0.0000 C   0  0  0  0  0  0  0  0  0  0  0  0
    3.3944    0.1110    0.0000 H   0  0  0  0  0  0  0  0  0  0  0  0
    1.6866   -2.3282    0.0000 H   0  0  0  0  0  0  0  0  0  0  0  0
    3.5054   -2.0074    0.0000 H   0  0  0  0  0  0  0  0  0  0  0  0
    2.3907    1.0037    0.0000 H   0  0  0  0  0  0  0  0  0  0  0  0
    0.1613    1.9759    0.0000 H   0  0  0  0  0  0  0  0  0  0  0  0
    1.6933    1.9635    0.0000 H   0  0  0  0  0  0  0  0  0  0  0  0
   -3.0372    2.0027    0.0000 H   0  0  0  0  0  0  0  0  0  0  0  0
   -2.5503   -0.9066    0.0000 H   0  0  0  0  0  0  0  0  0  0  0  0
   -3.9336    0.0801    0.0000 H   0  0  0  0  0  0  0  0  0  0  0  0
   -1.1354    4.8265    0.0000 H   0  0  0  0  0  0  0  0  0  0  0  0
    2.6435    2.8578    0.0000 H   0  0  0  0  0  0  0  0  0  0  0  0
    2.1583    7.0266    0.0000 H   0  0  0  0  0  0  0  0  0  0  0  0
    3.4349    5.3324    0.0000 H   0  0  0  0  0  0  0  0  0  0  0  0
   -0.2858    7.0490    0.0000 H   0  0  0  0  0  0  0  0  0  0  0  0
   -0.4719    2.9527    0.0000 H   0  0  0  0  0  0  0  0  0  0  0  0
    1.7472    4.4214    0.0000 H   0  0  0  0  0  0  0  0  0  0  0  0
   -4.6621    1.8442    0.0000 H   0  0  0  0  0  0  0  0  0  0  0  0
   -2.5635   -0.2917    0.0000 H   0  0  0  0  0  0  0  0  0  0  0  0
   -2.9272   -1.1882    0.0000 H   0  0  0  0  0  0  0  0  0  0  0  0
   -6.9005    0.9244    0.0000 H   0  0  0  0  0  0  0  0  0  0  0  0
   -5.8159    2.7104    0.0000 H   0  0  0  0  0  0  0  0  0  0  0  0
   -3.7272   -2.6688    0.0000 H   0  0  0  0  0  0  0  0  0  0  0  0
   -5.0870    3.0488    0.0000 H   0  0  0  0  0  0  0  0  0  0  0  0
   -3.9500    4.9042    0.0000 H   0  0  0  0  0  0  0  0  0  0  0  0
   -2.6635    5.6741    0.0000 H   0  0  0  0  0  0  0  0  0  0  0  0
   -2.8352    5.3512    0.0000 H   0  0  0  0  0  0  0  0  0  0  0  0
   -0.8973    6.2141    0.0000 H   0  0  0  0  0  0  0  0  0  0  0  0
   -2.5047   -0.4638    0.0000 H   0  0  0  0  0  0  0  0  0  0  0  0
   -3.1427   -1.1032    0.0000 H   0  0  0  0  0  0  0  0  0  0  0  0
   -2.8980   -3.0956    0.0000 H   0  0  0  0  0  0  0  0  0  0  0  0
   -2.3313   -3.9271    0.0000 H   0  0  0  0  0  0  0  0  0  0  0  0
   -0.4222   -4.5474    0.0000 H   0  0  0  0  0  0  0  0  0  0  0  0
    0.7062   -4.1807    0.0000 H   0  0  0  0  0  0  0  0  0  0  0  0
    1.8797   -2.9224    0.0000 H   0  0  0  0  0  0  0  0  0  0  0  0
    1.8209   -1.6771    0.0000 H   0  0  0  0  0  0  0  0  0  0  0  0
  1  2  1  0
  2  3  1  0
  3  4  1  0
  4  5  1  1
  4  6  1  0
  6  7  1  1
  7  8  1  0
  8  9  1  0
  9 10  1  0
 10 11  1  0
 11 12  1  0
  6 13  1  0
 13 14  1  6
 14 15  1  0
 15 16  1  0
 16 17  1  0
 16 18  1  0
 18 19  2  0
 19 20  1  0
 20 21  1  0
 13 22  1  0
 22 23  1  0
 23 24  1  6
  4 25  1  0
 25 26  1  0
 26 27  1  0
 27 28  1  0
 28 29  1  0
 29  2  1  0
 23  6  1  0
 29 25  1  0
 11  8  1  0
 23 13  1  0
 12  9  1  0
 21 15  1  0
 21 18  1  0
  1 30  1  0
  1 31  1  0
  1 32  1  0
  2 33  1  6
  3 34  1  0
  3 35  1  0
  5 36  1  0
  5 37  1  0
  5 38  1  0
  8 39  1  1
  9 40  1  1
 10 41  1  0
 10 42  1  0
 11 43  1  1
 12 44  1  0
 12 45  1  0
 14 46  1  0
 14 47  1  0
 15 48  1  6
 16 49  1  6
 17 50  1  0
 21 51  1  1
 22 52  1  0
 22 53  1  0
 24 54  1  0
 24 55  1  0
 24 56  1  0
 25 57  1  1
 26 58  1  0
 26 59  1  0
 27 60  1  0
 27 61  1  0
 28 62  1  0
 28 63  1  0
 29 64  1  1
M  END
$$$$
