
     RDKit          2D

 93110  0  0  0  0  0  0  0  0999 V2000
  -13.2599   -7.8296    0.0000 C   0  0  0  0  0  0  0  0  0  0  0  0
  -11.9167   -7.1619    0.0000 C   0  0  0  0  0  0  0  0  0  0  0  0
  -11.8232   -5.6649    0.0000 C   0  0  0  0  0  0  0  0  0  0  0  0
  -11.7298   -4.1678    0.0000 C   0  0  0  0  0  0  0  0  0  0  0  0
  -10.2392   -3.9998    0.0000 C   0  0  0  0  0  0  0  0  0  0  0  0
   -8.8161   -3.5256    0.0000 C   0  0  0  0  0  0  0  0  0  0  0  0
   -7.3256   -3.3577    0.0000 C   0  0  0  0  0  0  0  0  0  0  0  0
   -5.8350   -3.1898    0.0000 C   0  0  0  0  0  0  0  0  0  0  0  0
   -4.3444   -3.0218    0.0000 C   0  0  0  0  0  0  0  0  0  0  0  0
   -2.8539   -2.8539    0.0000 C   0  0  0  0  0  0  0  0  0  0  0  0
   -3.3493   -1.4380    0.0000 C   0  0  0  0  0  0  0  0  0  0  0  0
   -2.5512   -0.1679    0.0000 C   0  0  0  0  0  0  0  0  0  0  0  0
   -1.9514    1.2069    0.0000 C   0  0  0  0  0  0  0  0  0  0  0  0
   -1.0607    0.0000    0.0000 C   0  0  0  0  0  0  0  0  0  0  0  0
   -0.0000   -1.0607    0.0000 C   0  0  0  0  0  0  0  0  0  0  0  0
    1.0607    0.0000    0.0000 S   0  0  0  0  0  0  0  0  0  0  0  0
    0.0000    1.0607    0.0000 C   0  0  0  0  0  0  0  0  0  0  0  0
   -0.1756    2.5503    0.0000 C   0  0  0  0  0  0  0  0  0  0  0  0
   -1.5536    3.1431    0.0000 C   0  0  0  0  0  0  0  0  0  0  0  0
   -2.5802    0.7564    0.0000 N   0  0  0  0  0  0  0  0  0  0  0  0
   -1.3779    1.6534    0.0000 C   0  0  0  0  0  0  0  0  0  0  0  0
   -0.1679   -2.5512    0.0000 C   0  0  0  0  0  0  0  0  0  0  0  0
    1.1582   -3.2521    0.0000 C   0  0  0  0  0  0  0  0  0  0  0  0
    1.2143   -4.7511    0.0000 C   0  0  0  0  0  0  0  0  0  0  0  0
    2.7002   -4.9561    0.0000 C   0  0  0  0  0  0  0  0  0  0  0  0
   -0.1119   -4.0502    0.0000 C   0  0  0  0  0  0  0  0  0  0  0  0
   -1.4380   -3.3493    0.0000 C   0  0  0  0  0  0  0  0  0  0  0  0
   -2.0379   -4.7241    0.0000 C   0  0  0  0  0  0  0  0  0  0  0  0
   -2.6377   -6.0990    0.0000 C   0  0  0  0  0  0  0  0  0  0  0  0
   -4.0958   -5.7470    0.0000 C   0  0  0  0  0  0  0  0  0  0  0  0
   -4.4478   -7.2051    0.0000 C   0  0  0  0  0  0  0  0  0  0  0  0
   -5.9059   -6.8531    0.0000 C   0  0  0  0  0  0  0  0  0  0  0  0
   -5.5539   -5.3950    0.0000 C   0  0  0  0  0  0  0  0  0  0  0  0
   -5.2020   -3.9369    0.0000 C   0  0  0  0  0  0  0  0  0  0  0  0
   -2.7311   -7.5961    0.0000 C   0  0  0  0  0  0  0  0  0  0  0  0
   -1.3879   -6.9284    0.0000 C   0  0  0  0  0  0  0  0  0  0  0  0
   -0.4972   -8.1353    0.0000 C   0  0  0  0  0  0  0  0  0  0  0  0
   -8.8274   -2.0257    0.0000 C   0  0  0  0  0  0  0  0  0  0  0  0
  -12.5712   -0.8401    0.0000 C   0  0  0  0  0  0  0  0  0  0  0  0
  -11.1481   -0.3659    0.0000 C   0  0  0  0  0  0  0  0  0  0  0  0
  -11.0802   -2.0944    0.0000 C   0  0  0  0  0  0  0  0  0  0  0  0
  -12.5600   -2.3401    0.0000 C   0  0  0  0  0  0  0  0  0  0  0  0
  -11.1299   -2.7929    0.0000 C   0  0  0  0  0  0  0  0  0  0  0  0
  -10.2574   -1.5728    0.0000 C   0  0  0  0  0  0  0  0  0  0  0  0
  -13.3533   -9.3267    0.0000 H   0  0  0  0  0  0  0  0  0  0  0  0
  -14.5097   -7.0001    0.0000 H   0  0  0  0  0  0  0  0  0  0  0  0
  -10.6669   -7.9914    0.0000 H   0  0  0  0  0  0  0  0  0  0  0  0
  -10.3487   -5.9401    0.0000 H   0  0  0  0  0  0  0  0  0  0  0  0
  -13.3203   -5.5714    0.0000 H   0  0  0  0  0  0  0  0  0  0  0  0
  -13.2199   -3.9962    0.0000 H   0  0  0  0  0  0  0  0  0  0  0  0
   -9.7402   -5.4144    0.0000 H   0  0  0  0  0  0  0  0  0  0  0  0
   -8.4933   -4.9905    0.0000 H   0  0  0  0  0  0  0  0  0  0  0  0
   -7.3106   -1.8578    0.0000 H   0  0  0  0  0  0  0  0  0  0  0  0
   -7.3406   -4.8576    0.0000 H   0  0  0  0  0  0  0  0  0  0  0  0
   -6.0327   -4.6767    0.0000 H   0  0  0  0  0  0  0  0  0  0  0  0
   -6.0029   -1.6992    0.0000 H   0  0  0  0  0  0  0  0  0  0  0  0
   -4.6928   -1.5628    0.0000 H   0  0  0  0  0  0  0  0  0  0  0  0
   -4.3594   -4.5217    0.0000 H   0  0  0  0  0  0  0  0  0  0  0  0
   -3.2022   -4.3128    0.0000 H   0  0  0  0  0  0  0  0  0  0  0  0
   -4.8083   -1.0896    0.0000 H   0  0  0  0  0  0  0  0  0  0  0  0
   -3.8774    0.5330    0.0000 H   0  0  0  0  0  0  0  0  0  0  0  0
   -2.4750    2.6125    0.0000 H   0  0  0  0  0  0  0  0  0  0  0  0
    1.3515   -1.7115    0.0000 H   0  0  0  0  0  0  0  0  0  0  0  0
   -2.4505    4.3454    0.0000 H   0  0  0  0  0  0  0  0  0  0  0  0
    2.4283   -2.4541    0.0000 H   0  0  0  0  0  0  0  0  0  0  0  0
    0.7543   -6.1788    0.0000 H   0  0  0  0  0  0  0  0  0  0  0  0
    4.1861   -5.1612    0.0000 H   0  0  0  0  0  0  0  0  0  0  0  0
    2.4952   -6.4421    0.0000 H   0  0  0  0  0  0  0  0  0  0  0  0
    2.9053   -3.4702    0.0000 H   0  0  0  0  0  0  0  0  0  0  0  0
   -3.5170   -4.4748    0.0000 H   0  0  0  0  0  0  0  0  0  0  0  0
   -0.6002   -5.1519    0.0000 H   0  0  0  0  0  0  0  0  0  0  0  0
   -4.2674   -7.2371    0.0000 H   0  0  0  0  0  0  0  0  0  0  0  0
   -4.7998   -8.6632    0.0000 H   0  0  0  0  0  0  0  0  0  0  0  0
   -3.1182   -7.8994    0.0000 H   0  0  0  0  0  0  0  0  0  0  0  0
   -7.3640   -6.5011    0.0000 H   0  0  0  0  0  0  0  0  0  0  0  0
   -6.2579   -8.3112    0.0000 H   0  0  0  0  0  0  0  0  0  0  0  0
   -7.0441   -5.2234    0.0000 H   0  0  0  0  0  0  0  0  0  0  0  0
   -5.2133   -2.4369    0.0000 H   0  0  0  0  0  0  0  0  0  0  0  0
   -6.6921   -3.7653    0.0000 H   0  0  0  0  0  0  0  0  0  0  0  0
   -6.6894   -4.1309    0.0000 H   0  0  0  0  0  0  0  0  0  0  0  0
   -4.0625   -8.2871    0.0000 H   0  0  0  0  0  0  0  0  0  0  0  0
   -2.4855   -9.0758    0.0000 H   0  0  0  0  0  0  0  0  0  0  0  0
   -0.2293   -5.9758    0.0000 H   0  0  0  0  0  0  0  0  0  0  0  0
    0.3935   -9.3422    0.0000 H   0  0  0  0  0  0  0  0  0  0  0  0
   -1.5865   -9.1665    0.0000 H   0  0  0  0  0  0  0  0  0  0  0  0
    0.7097   -7.2446    0.0000 H   0  0  0  0  0  0  0  0  0  0  0  0
   -7.7380   -0.9945    0.0000 H   0  0  0  0  0  0  0  0  0  0  0  0
  -13.7913    0.0324    0.0000 H   0  0  0  0  0  0  0  0  0  0  0  0
  -10.6953    1.0641    0.0000 H   0  0  0  0  0  0  0  0  0  0  0  0
  -10.4837   -3.4707    0.0000 H   0  0  0  0  0  0  0  0  0  0  0  0
   -9.6584   -2.5722    0.0000 H   0  0  0  0  0  0  0  0  0  0  0  0
  -13.8664   -3.0771    0.0000 H   0  0  0  0  0  0  0  0  0  0  0  0
   -9.3848   -0.3528    0.0000 H   0  0  0  0  0  0  0  0  0  0  0  0
  1  2  2  3
  2  3  1  0
  3  4  1  0
  4  5  1  0
  5  6  1  0
  6  7  1  0
  7  8  1  0
  8  9  1  0
  9 10  1  0
 10 11  1  0
 11 12  1  0
 12 13  1  0
 13 14  1  0
 14 15  1  0
 15 16  1  0
 16 17  1  0
 17 18  1  0
 18 19  1  0
 19 20  1  0
 20 21  1  0
 15 22  1  0
 22 23  1  0
 23 24  1  0
 24 25  1  0
 24 26  1  0
 26 27  1  0
 27 28  1  0
 28 29  1  0
 29 30  1  0
 30 31  1  0
 31 32  1  0
 32 33  1  0
 33 34  1  0
 29 35  1  0
 35 36  1  0
 36 37  1  0
  6 38  1  0
 38 39  1  0
 39 40  1  0
 40 41  1  0
 41 42  1  0
 42 43  1  0
 43 44  1  0
 43  4  1  0
 43  5  1  0
 27 10  1  0
 36 29  1  0
 44 38  1  0
 20 11  1  0
 26 22  1  0
 33 30  1  0
 42 39  1  0
 14 12  1  0
 21 17  1  0
 27 22  1  0
 44 40  1  0
 18 13  1  0
 21 19  1  0
 26 23  1  0
 17 14  1  0
 21 18  1  0
  1 45  1  0
  1 46  1  0
  2 47  1  0
  3 48  1  0
  3 49  1  0
  4 50  1  0
  5 51  1  0
  6 52  1  0
  7 53  1  0
  7 54  1  0
  8 55  1  0
  8 56  1  0
  9 57  1  0
  9 58  1  0
 10 59  1  0
 11 60  1  0
 12 61  1  0
 13 62  1  0
 15 63  1  0
 19 64  1  0
 23 65  1  0
 24 66  1  0
 25 67  1  0
 25 68  1  0
 25 69  1  0
 28 70  1  0
 28 71  1  0
 30 72  1  0
 31 73  1  0
 31 74  1  0
 32 75  1  0
 32 76  1  0
 33 77  1  0
 34 78  1  0
 34 79  1  0
 34 80  1  0
 35 81  1  0
 35 82  1  0
 36 83  1  0
 37 84  1  0
 37 85  1  0
 37 86  1  0
 38 87  1  0
 39 88  1  0
 40 89  1  0
 41 90  1  0
 41 91  1  0
 42 92  1  0
 44 93  1  0
M  END
$$$$
