
     RDKit          2D

 61 66  0  0  0  0  0  0  0  0999 V2000
    3.0339   -4.3633    0.0000 C   0  0  0  0  0  0  0  0  0  0  0  0
    3.3177   -2.8904    0.0000 C   0  0  0  0  0  0  0  0  0  0  0  0
    3.6016   -1.4175    0.0000 C   0  0  0  0  0  0  0  0  0  0  0  0
    3.8855    0.0554    0.0000 C   0  0  0  0  0  0  0  0  0  0  0  0
    4.1694    1.5283    0.0000 C   0  0  0  0  0  0  0  0  0  0  0  0
    2.1287   -1.1336    0.0000 C   0  0  0  0  0  0  0  0  0  0  0  0
    2.3422   -2.6184    0.0000 N   0  0  0  0  0  0  0  0  0  0  0  0
    1.7191   -3.9828    0.0000 C   0  0  0  0  0  0  0  0  0  0  0  0
    0.4572   -4.7938    0.0000 C   0  0  0  0  0  0  0  0  0  0  0  0
   -1.0428   -4.7938    0.0000 C   0  0  0  0  0  0  0  0  0  0  0  0
   -2.3047   -3.9828    0.0000 C   0  0  0  0  0  0  0  0  0  0  0  0
   -2.9278   -2.6184    0.0000 C   0  0  0  0  0  0  0  0  0  0  0  0
   -2.7143   -1.1336    0.0000 C   0  0  0  0  0  0  0  0  0  0  0  0
   -1.7321    0.0000    0.0000 C   0  0  0  0  0  0  0  0  0  0  0  0
   -1.7321    1.5000    0.0000 C   0  0  0  0  0  0  0  0  0  0  0  0
   -0.4330    0.7500    0.0000 C   0  0  0  0  0  0  0  0  0  0  0  0
    0.8660    0.0000    0.0000 C   0  0  0  0  0  0  0  0  0  0  0  0
    2.3660    0.0000    0.0000 C   0  0  0  0  0  0  0  0  0  0  0  0
   -0.4330   -0.7500    0.0000 C   0  0  0  0  0  0  0  0  0  0  0  0
   -4.2516   -3.3238    0.0000 C   0  0  0  0  0  0  0  0  0  0  0  0
   -4.5255   -4.7986    0.0000 C   0  0  0  0  0  0  0  0  0  0  0  0
   -5.9023   -4.2034    0.0000 C   0  0  0  0  0  0  0  0  0  0  0  0
   -3.5432   -5.9322    0.0000 C   0  0  0  0  0  0  0  0  0  0  0  0
   -2.0444   -5.8710    0.0000 N   0  0  0  0  0  0  0  0  0  0  0  0
   -1.3390   -7.1948    0.0000 C   0  0  0  0  0  0  0  0  0  0  0  0
    2.9316   -5.8598    0.0000 H   0  0  0  0  0  0  0  0  0  0  0  0
    2.2379   -4.4063    0.0000 H   0  0  0  0  0  0  0  0  0  0  0  0
    4.5068   -4.6472    0.0000 H   0  0  0  0  0  0  0  0  0  0  0  0
    1.8199   -2.9714    0.0000 H   0  0  0  0  0  0  0  0  0  0  0  0
    4.7906   -3.1743    0.0000 H   0  0  0  0  0  0  0  0  0  0  0  0
    5.0745   -1.7014    0.0000 H   0  0  0  0  0  0  0  0  0  0  0  0
    5.3128   -0.4059    0.0000 H   0  0  0  0  0  0  0  0  0  0  0  0
    5.3820   -0.0468    0.0000 H   0  0  0  0  0  0  0  0  0  0  0  0
    4.4532    3.0012    0.0000 H   0  0  0  0  0  0  0  0  0  0  0  0
    5.6423    1.2444    0.0000 H   0  0  0  0  0  0  0  0  0  0  0  0
    2.7421    1.9896    0.0000 H   0  0  0  0  0  0  0  0  0  0  0  0
    3.1708   -0.0547    0.0000 H   0  0  0  0  0  0  0  0  0  0  0  0
    3.7311   -3.1848    0.0000 H   0  0  0  0  0  0  0  0  0  0  0  0
    2.0727   -5.4405    0.0000 H   0  0  0  0  0  0  0  0  0  0  0  0
    3.1334   -4.4825    0.0000 H   0  0  0  0  0  0  0  0  0  0  0  0
    0.1430   -6.2605    0.0000 H   0  0  0  0  0  0  0  0  0  0  0  0
    1.5144   -5.8578    0.0000 H   0  0  0  0  0  0  0  0  0  0  0  0
   -1.1046   -6.2925    0.0000 H   0  0  0  0  0  0  0  0  0  0  0  0
   -3.7979   -4.1254    0.0000 H   0  0  0  0  0  0  0  0  0  0  0  0
   -3.0006   -5.3116    0.0000 H   0  0  0  0  0  0  0  0  0  0  0  0
   -4.0788   -0.5105    0.0000 H   0  0  0  0  0  0  0  0  0  0  0  0
   -2.4821    2.7990    0.0000 H   0  0  0  0  0  0  0  0  0  0  0  0
    3.8214    0.3630    0.0000 H   0  0  0  0  0  0  0  0  0  0  0  0
    2.1832    1.4888    0.0000 H   0  0  0  0  0  0  0  0  0  0  0  0
    2.7290   -1.4554    0.0000 H   0  0  0  0  0  0  0  0  0  0  0  0
   -4.6447   -1.8762    0.0000 H   0  0  0  0  0  0  0  0  0  0  0  0
   -5.7466   -3.2018    0.0000 H   0  0  0  0  0  0  0  0  0  0  0  0
   -5.5529   -5.8914    0.0000 H   0  0  0  0  0  0  0  0  0  0  0  0
   -7.2792   -3.6082    0.0000 H   0  0  0  0  0  0  0  0  0  0  0  0
   -6.4975   -5.5803    0.0000 H   0  0  0  0  0  0  0  0  0  0  0  0
   -5.4794   -2.7642    0.0000 H   0  0  0  0  0  0  0  0  0  0  0  0
   -4.7711   -6.7937    0.0000 H   0  0  0  0  0  0  0  0  0  0  0  0
   -3.3294   -7.4169    0.0000 H   0  0  0  0  0  0  0  0  0  0  0  0
   -0.6336   -8.5186    0.0000 H   0  0  0  0  0  0  0  0  0  0  0  0
   -2.5669   -8.0563    0.0000 H   0  0  0  0  0  0  0  0  0  0  0  0
    0.0609   -6.6560    0.0000 H   0  0  0  0  0  0  0  0  0  0  0  0
  1  2  1  0
  2  3  1  0
  3  4  1  0
  4  5  1  0
  3  6  1  0
  6  7  1  0
  7  8  1  0
  8  9  1  0
  9 10  1  0
 10 11  1  0
 11 12  1  0
 12 13  2  0
 13 14  1  0
 14 15  1  0
 15 16  1  0
 16 17  1  0
 17 18  1  0
 17 19  1  0
 12 20  1  0
 20 21  1  0
 21 22  1  0
 21 23  1  0
 23 24  1  0
 24 25  1  0
 17  6  1  0
 24 10  1  0
 16 14  1  0
 19 14  1  0
 19 15  1  0
 19 16  1  0
  1 26  1  0
  1 27  1  0
  1 28  1  0
  2 29  1  0
  2 30  1  0
  3 31  1  0
  4 32  1  0
  4 33  1  0
  5 34  1  0
  5 35  1  0
  5 36  1  0
  6 37  1  0
  7 38  1  0
  8 39  1  0
  8 40  1  0
  9 41  1  0
  9 42  1  0
 10 43  1  0
 11 44  1  0
 11 45  1  0
 13 46  1  0
 15 47  1  0
 18 48  1  0
 18 49  1  0
 18 50  1  0
 20 51  1  0
 20 52  1  0
 21 53  1  0
 22 54  1  0
 22 55  1  0
 22 56  1  0
 23 57  1  0
 23 58  1  0
 25 59  1  0
 25 60  1  0
 25 61  1  0
M  END
$$$$
