
     RDKit          3D

 31 36  0  0  0  0  0  0  0  0999 V2000
   15.5861  -25.5904  -13.6255 C   0  0  0  0  0  0  0  0  0  0  0  0
   14.7401  -25.0053  -14.6909 C   0  0  0  0  0  0  0  0  0  0  0  0
   16.4720  -26.7910  -13.9767 C   0  0  0  0  0  0  0  0  0  0  0  0
   16.4003  -25.8799  -16.4470 C   0  0  0  0  0  0  0  0  0  0  0  0
   18.5577  -26.0162  -15.2730 C   0  0  0  0  0  0  0  0  0  0  0  0
   17.1344  -24.6385  -16.7511 N   0  0  0  0  0  0  0  0  0  0  0  0
   17.1871  -26.6587  -15.3282 C   0  0  0  0  0  0  0  0  0  0  0  0
   18.3882  -24.5255  -15.9352 C   0  0  0  0  0  0  0  0  0  0  0  0
   14.8943  -25.5345  -16.1185 C   0  0  0  0  0  0  0  0  0  0  0  0
   18.1861  -23.3225  -14.7540 C   0  0  0  0  0  0  0  0  0  0  0  0
   18.6826  -23.7157  -13.2975 C   0  0  0  0  0  0  0  0  0  0  0  0
   18.5198  -21.7130  -14.9112 C   0  0  0  0  0  0  0  0  0  0  0  0
   17.4305  -20.6583  -14.1710 C   0  0  0  0  0  0  0  0  0  0  0  0
   17.6181  -20.3807  -12.5646 C   0  0  0  0  0  0  0  0  0  0  0  0
   16.6670  -21.1723  -11.3474 C   0  0  0  0  0  0  0  0  0  0  0  0
   17.5281  -22.2444  -10.4421 C   0  0  0  0  0  0  0  0  0  0  0  0
   15.1951  -21.7595  -11.9148 C   0  0  0  0  0  0  0  0  0  0  0  0
   19.1367  -20.1515  -12.3000 C   0  0  0  0  0  0  0  0  0  0  0  0
   17.0941  -18.9031  -12.3685 C   0  0  0  0  0  0  0  0  0  0  0  0
   14.7669  -23.0873  -11.2256 C   0  0  0  0  0  0  0  0  0  0  0  0
   18.5354  -22.5940   -9.2843 C   0  0  0  0  0  0  0  0  0  0  0  0
   18.2781  -24.0043   -8.7728 C   0  0  0  0  0  0  0  0  0  0  0  0
   18.7176  -24.1371   -7.4338 O   0  0  0  0  0  0  0  0  0  0  0  0
   17.3722  -21.7189   -8.9768 C   0  0  0  0  0  0  0  0  0  0  0  0
   14.8927  -23.2107   -9.7272 C   0  0  0  0  0  0  0  0  0  0  0  0
   18.9852  -25.0220   -9.6721 C   0  0  0  0  0  0  0  0  0  0  0  0
   19.6034  -24.5772   -8.3764 C   0  0  0  0  0  0  0  0  0  0  0  0
   12.5923  -21.2183  -12.6157 C   0  0  0  0  0  0  0  0  0  0  0  0
   13.9693  -20.7354  -12.0147 C   0  0  0  0  0  0  0  0  0  0  0  0
   13.5554  -23.2268  -10.3513 C   0  0  0  0  0  0  0  0  0  0  0  0
   15.3684  -24.5752   -9.2303 C   0  0  0  0  0  0  0  0  0  0  0  0
  2  1  1  0
  3  1  1  0
  6  4  1  0
  7  3  1  0
  7  4  1  0
  7  5  1  0
  8  5  1  0
  8  6  1  0
  9  2  1  0
  9  4  1  0
 10  8  1  0
 11 10  1  0
 12 10  1  0
 13 12  1  0
 14 13  1  0
 15 14  1  0
 16 15  1  0
 17 15  1  0
 18 14  1  0
 19 14  1  0
 20 17  1  0
 21 16  1  0
 22 21  1  0
 23 22  1  0
 24 16  1  0
 24 21  1  0
 25 20  1  0
 26 22  1  0
 27 22  1  0
 27 23  1  0
 27 26  1  0
 29 17  1  0
 29 28  1  0
 30 20  1  0
 30 25  1  0
 31 25  1  0
M  END
$$$$
