
     RDKit          2D

 22 25  0  0  0  0  0  0  0  0999 V2000
   -1.1830   -3.5490    0.0000 N   0  0  0  0  0  0  0  0  0  0  0  0
   -2.4821   -2.7990    0.0000 C   0  0  0  0  0  0  0  0  0  0  0  0
   -3.7811   -2.0490    0.0000 N   0  0  0  0  0  0  0  0  0  0  0  0
   -5.2811   -2.0490    0.0000 C   0  0  0  0  0  0  0  0  0  0  0  0
   -4.5311   -0.7500    0.0000 C   0  0  0  0  0  0  0  0  0  0  0  0
   -5.6802    0.2142    0.0000 O   0  0  0  0  0  0  0  0  0  0  0  0
   -1.7321   -1.5000    0.0000 N   0  0  0  0  0  0  0  0  0  0  0  0
   -0.4330   -0.7500    0.0000 C   0  0  0  0  0  0  0  0  0  0  0  0
   -0.4330    0.7500    0.0000 C   0  0  0  0  0  0  0  0  0  0  0  0
   -1.7321    1.5000    0.0000 C   0  0  0  0  0  0  0  0  0  0  0  0
   -1.7321    0.0000    0.0000 C   0  0  0  0  0  0  0  0  0  0  0  0
   -1.1830   -5.0490    0.0000 H   0  0  0  0  0  0  0  0  0  0  0  0
    0.1160   -2.7990    0.0000 H   0  0  0  0  0  0  0  0  0  0  0  0
   -3.2321   -4.0981    0.0000 H   0  0  0  0  0  0  0  0  0  0  0  0
   -5.5416   -3.5262    0.0000 H   0  0  0  0  0  0  0  0  0  0  0  0
   -6.6906   -1.5360    0.0000 H   0  0  0  0  0  0  0  0  0  0  0  0
   -3.3820    0.2142    0.0000 H   0  0  0  0  0  0  0  0  0  0  0  0
   -5.4197    1.6914    0.0000 H   0  0  0  0  0  0  0  0  0  0  0  0
    0.8660   -1.5000    0.0000 H   0  0  0  0  0  0  0  0  0  0  0  0
    0.8660    1.5000    0.0000 H   0  0  0  0  0  0  0  0  0  0  0  0
   -1.2190    2.9095    0.0000 H   0  0  0  0  0  0  0  0  0  0  0  0
   -3.2093    1.7605    0.0000 H   0  0  0  0  0  0  0  0  0  0  0  0
  1  2  1  0
  2  3  1  0
  3  4  1  0
  4  5  1  0
  5  6  1  0
  2  7  1  0
  7  8  1  0
  8  9  1  0
  9 10  1  0
 10 11  1  0
  5  3  1  0
 11  7  1  0
 11  8  1  0
 11  9  1  0
  1 12  1  0
  1 13  1  0
  2 14  1  0
  4 15  1  0
  4 16  1  0
  5 17  1  0
  6 18  1  0
  8 19  1  0
  9 20  1  0
 10 21  1  0
 10 22  1  0
M  END
$$$$
