
     RDKit          2D

 53 54  0  0  0  0  0  0  0  0999 V2000
    2.3660    0.0000    0.0000 C   0  0  0  0  0  0  0  0  0  0  0  0
    0.8660    0.0000    0.0000 C   0  0  0  0  0  0  0  0  0  0  0  0
   -0.4330    0.7500    0.0000 C   0  0  0  0  0  0  0  0  0  0  0  0
   -1.9102    1.0105    0.0000 C   0  0  0  0  0  0  0  0  0  0  0  0
   -0.4330   -0.7500    0.0000 C   0  0  0  0  0  0  0  0  0  0  0  0
    0.0800   -2.1595    0.0000 C   0  0  0  0  0  0  0  0  0  0  0  0
    0.5930   -3.5691    0.0000 C   0  0  0  0  0  0  0  0  0  0  0  0
    1.1061   -4.9786    0.0000 C   0  0  0  0  0  0  0  0  0  0  0  0
   -0.8165   -4.0821    0.0000 C   0  0  0  0  0  0  0  0  0  0  0  0
   -1.9656   -5.0463    0.0000 C   0  0  0  0  0  0  0  0  0  0  0  0
   -0.5560   -5.5593    0.0000 C   0  0  0  0  0  0  0  0  0  0  0  0
   -0.8165   -7.0365    0.0000 C   0  0  0  0  0  0  0  0  0  0  0  0
   -1.0770   -8.5137    0.0000 C   0  0  0  0  0  0  0  0  0  0  0  0
   -1.3374   -9.9910    0.0000 C   0  0  0  0  0  0  0  0  0  0  0  0
   -2.5542   -8.2533    0.0000 C   0  0  0  0  0  0  0  0  0  0  0  0
   -4.0314   -7.9928    0.0000 C   0  0  0  0  0  0  0  0  0  0  0  0
   -5.5086   -7.7323    0.0000 C   0  0  0  0  0  0  0  0  0  0  0  0
   -6.9858   -7.4719    0.0000 C   0  0  0  0  0  0  0  0  0  0  0  0
   -8.4630   -7.2114    0.0000 C   0  0  0  0  0  0  0  0  0  0  0  0
    3.1160   -1.2990    0.0000 H   0  0  0  0  0  0  0  0  0  0  0  0
    3.1160    1.2990    0.0000 H   0  0  0  0  0  0  0  0  0  0  0  0
    0.0800    2.1595    0.0000 H   0  0  0  0  0  0  0  0  0  0  0  0
   -3.3874    1.2709    0.0000 H   0  0  0  0  0  0  0  0  0  0  0  0
   -1.6498    2.4877    0.0000 H   0  0  0  0  0  0  0  0  0  0  0  0
   -2.3050   -0.2805    0.0000 H   0  0  0  0  0  0  0  0  0  0  0  0
   -1.7240   -1.1447    0.0000 H   0  0  0  0  0  0  0  0  0  0  0  0
   -0.9855   -2.4055    0.0000 H   0  0  0  0  0  0  0  0  0  0  0  0
    1.4896   -1.6465    0.0000 H   0  0  0  0  0  0  0  0  0  0  0  0
    2.0026   -3.0560    0.0000 H   0  0  0  0  0  0  0  0  0  0  0  0
    1.5216   -6.1203    0.0000 H   0  0  0  0  0  0  0  0  0  0  0  0
    2.5156   -4.4656    0.0000 H   0  0  0  0  0  0  0  0  0  0  0  0
    0.4452   -5.4244    0.0000 H   0  0  0  0  0  0  0  0  0  0  0  0
   -1.4746   -3.2088    0.0000 H   0  0  0  0  0  0  0  0  0  0  0  0
   -3.1146   -4.0821    0.0000 H   0  0  0  0  0  0  0  0  0  0  0  0
   -3.0076   -6.1252    0.0000 H   0  0  0  0  0  0  0  0  0  0  0  0
    0.3989   -5.7975    0.0000 H   0  0  0  0  0  0  0  0  0  0  0  0
    0.6607   -7.2970    0.0000 H   0  0  0  0  0  0  0  0  0  0  0  0
   -2.2937   -6.7761    0.0000 H   0  0  0  0  0  0  0  0  0  0  0  0
    0.4002   -8.7742    0.0000 H   0  0  0  0  0  0  0  0  0  0  0  0
   -1.5979  -11.4682    0.0000 H   0  0  0  0  0  0  0  0  0  0  0  0
    0.1398  -10.2514    0.0000 H   0  0  0  0  0  0  0  0  0  0  0  0
   -2.8354   -9.9125    0.0000 H   0  0  0  0  0  0  0  0  0  0  0  0
   -2.9928   -9.6877    0.0000 H   0  0  0  0  0  0  0  0  0  0  0  0
   -2.6589   -6.7569    0.0000 H   0  0  0  0  0  0  0  0  0  0  0  0
   -4.2919   -9.4700    0.0000 H   0  0  0  0  0  0  0  0  0  0  0  0
   -3.7709   -6.5156    0.0000 H   0  0  0  0  0  0  0  0  0  0  0  0
   -5.2481   -6.2551    0.0000 H   0  0  0  0  0  0  0  0  0  0  0  0
   -5.7691   -9.2095    0.0000 H   0  0  0  0  0  0  0  0  0  0  0  0
   -7.2463   -8.9491    0.0000 H   0  0  0  0  0  0  0  0  0  0  0  0
   -6.7253   -5.9946    0.0000 H   0  0  0  0  0  0  0  0  0  0  0  0
   -9.9402   -6.9509    0.0000 H   0  0  0  0  0  0  0  0  0  0  0  0
   -8.2025   -5.7342    0.0000 H   0  0  0  0  0  0  0  0  0  0  0  0
   -8.7235   -8.6886    0.0000 H   0  0  0  0  0  0  0  0  0  0  0  0
  1  2  2  3
  2  3  1  0
  3  4  1  0
  3  5  1  0
  5  6  1  0
  6  7  1  0
  7  8  1  0
  7  9  1  0
  9 10  1  0
 10 11  1  0
 11 12  1  0
 12 13  1  0
 13 14  1  0
 13 15  1  0
 15 16  1  0
 16 17  1  0
 17 18  1  0
 18 19  1  0
  5  2  1  0
 11  9  1  0
  1 20  1  0
  1 21  1  0
  3 22  1  6
  4 23  1  0
  4 24  1  0
  4 25  1  0
  5 26  1  1
  6 27  1  0
  6 28  1  0
  7 29  1  1
  8 30  1  0
  8 31  1  0
  8 32  1  0
  9 33  1  6
 10 34  1  0
 10 35  1  0
 11 36  1  1
 12 37  1  0
 12 38  1  0
 13 39  1  1
 14 40  1  0
 14 41  1  0
 14 42  1  0
 15 43  1  0
 15 44  1  0
 16 45  1  0
 16 46  1  0
 17 47  1  0
 17 48  1  0
 18 49  1  0
 18 50  1  0
 19 51  1  0
 19 52  1  0
 19 53  1  0
M  END
$$$$
