
     RDKit          2D

 46 45  0  0  0  0  0  0  0  0999 V2000
    0.0000    0.0000    0.0000 C   0  0  0  0  0  0  0  0  0  0  0  0
    1.5000    0.0000    0.0000 C   0  0  0  0  0  0  0  0  0  0  0  0
    3.0000    0.0000    0.0000 C   0  0  0  0  0  0  0  0  0  0  0  0
    4.5000    0.0000    0.0000 C   0  0  0  0  0  0  0  0  0  0  0  0
    6.0000    0.0000    0.0000 C   0  0  0  0  0  0  0  0  0  0  0  0
    7.5000   -0.0000    0.0000 C   0  0  0  0  0  0  0  0  0  0  0  0
    4.5000   -1.5000    0.0000 C   0  0  0  0  0  0  0  0  0  0  0  0
    4.5000   -3.0000    0.0000 C   0  0  0  0  0  0  0  0  0  0  0  0
    4.5000   -4.5000    0.0000 C   0  0  0  0  0  0  0  0  0  0  0  0
    6.0000   -3.0000    0.0000 C   0  0  0  0  0  0  0  0  0  0  0  0
    7.5000   -3.0000    0.0000 C   0  0  0  0  0  0  0  0  0  0  0  0
    9.0000   -3.0000    0.0000 C   0  0  0  0  0  0  0  0  0  0  0  0
    9.0000   -4.5000    0.0000 N   0  0  0  0  0  0  0  0  0  0  0  0
    9.0000   -1.5000    0.0000 F   0  0  0  0  0  0  0  0  0  0  0  0
   10.5000   -3.0000    0.0000 C   0  0  0  0  0  0  0  0  0  0  0  0
   10.6828   -4.4888    0.0000 F   0  0  0  0  0  0  0  0  0  0  0  0
   12.0000   -3.0000    0.0000 C   0  0  0  0  0  0  0  0  0  0  0  0
   13.5000   -3.0000    0.0000 F   0  0  0  0  0  0  0  0  0  0  0  0
   -1.5000    0.0000    0.0000 H   0  0  0  0  0  0  0  0  0  0  0  0
    0.0000    1.5000    0.0000 H   0  0  0  0  0  0  0  0  0  0  0  0
    0.0000   -1.5000    0.0000 H   0  0  0  0  0  0  0  0  0  0  0  0
    1.5000   -1.5000    0.0000 H   0  0  0  0  0  0  0  0  0  0  0  0
    1.5000    1.5000    0.0000 H   0  0  0  0  0  0  0  0  0  0  0  0
    3.0000    1.5000    0.0000 H   0  0  0  0  0  0  0  0  0  0  0  0
    2.8920   -0.8791    0.0000 H   0  0  0  0  0  0  0  0  0  0  0  0
    4.5000    1.5000    0.0000 H   0  0  0  0  0  0  0  0  0  0  0  0
    6.0000    1.5000    0.0000 H   0  0  0  0  0  0  0  0  0  0  0  0
    6.1080   -0.8791    0.0000 H   0  0  0  0  0  0  0  0  0  0  0  0
    9.0000   -0.0000    0.0000 H   0  0  0  0  0  0  0  0  0  0  0  0
    7.3172   -1.4888    0.0000 H   0  0  0  0  0  0  0  0  0  0  0  0
    7.5000    1.5000    0.0000 H   0  0  0  0  0  0  0  0  0  0  0  0
    5.3791   -1.6080    0.0000 H   0  0  0  0  0  0  0  0  0  0  0  0
    3.6209   -1.6080    0.0000 H   0  0  0  0  0  0  0  0  0  0  0  0
    3.0000   -3.0000    0.0000 H   0  0  0  0  0  0  0  0  0  0  0  0
    4.5000   -6.0000    0.0000 H   0  0  0  0  0  0  0  0  0  0  0  0
    3.6209   -4.3920    0.0000 H   0  0  0  0  0  0  0  0  0  0  0  0
    3.6209   -4.6080    0.0000 H   0  0  0  0  0  0  0  0  0  0  0  0
    5.8172   -4.4888    0.0000 H   0  0  0  0  0  0  0  0  0  0  0  0
    6.1828   -4.4888    0.0000 H   0  0  0  0  0  0  0  0  0  0  0  0
    7.3172   -4.4888    0.0000 H   0  0  0  0  0  0  0  0  0  0  0  0
    7.3172   -1.5112    0.0000 H   0  0  0  0  0  0  0  0  0  0  0  0
   10.1979   -5.4028    0.0000 H   0  0  0  0  0  0  0  0  0  0  0  0
    7.8021   -5.4028    0.0000 H   0  0  0  0  0  0  0  0  0  0  0  0
   10.5000   -1.5000    0.0000 H   0  0  0  0  0  0  0  0  0  0  0  0
   12.0000   -1.5000    0.0000 H   0  0  0  0  0  0  0  0  0  0  0  0
   12.0000   -4.5000    0.0000 H   0  0  0  0  0  0  0  0  0  0  0  0
  1  2  1  0
  2  3  1  0
  3  4  1  0
  4  5  1  0
  5  6  1  0
  4  7  1  0
  7  8  1  0
  8  9  1  0
  8 10  1  0
 10 11  1  0
 11 12  1  0
 12 13  1  0
 12 14  1  0
 12 15  1  0
 15 16  1  0
 15 17  1  0
 17 18  1  0
  1 19  1  0
  1 20  1  0
  1 21  1  0
  2 22  1  0
  2 23  1  0
  3 24  1  0
  3 25  1  0
  4 26  1  0
  5 27  1  0
  5 28  1  0
  6 29  1  0
  6 30  1  0
  6 31  1  0
  7 32  1  0
  7 33  1  0
  8 34  1  0
  9 35  1  0
  9 36  1  0
  9 37  1  0
 10 38  1  0
 10 39  1  0
 11 40  1  0
 11 41  1  0
 13 42  1  0
 13 43  1  0
 15 44  1  0
 17 45  1  0
 17 46  1  0
M  END
$$$$
