
     RDKit          2D

 47 53  0  0  0  0  0  0  0  0999 V2000
   -3.2917    2.8347    0.0000 C   0  0  0  0  0  0  0  0  0  0  0  0
   -3.0682    1.3515    0.0000 C   0  0  0  0  0  0  0  0  0  0  0  0
   -1.6058    1.6852    0.0000 C   0  0  0  0  0  0  0  0  0  0  0  0
   -0.4330    0.7500    0.0000 C   0  0  0  0  0  0  0  0  0  0  0  0
    0.8660    0.0000    0.0000 C   0  0  0  0  0  0  0  0  0  0  0  0
   -0.4330   -0.7500    0.0000 C   0  0  0  0  0  0  0  0  0  0  0  0
   -1.6058   -1.6852    0.0000 C   0  0  0  0  0  0  0  0  0  0  0  0
   -1.1636   -3.1186    0.0000 C   0  0  0  0  0  0  0  0  0  0  0  0
   -2.6260   -2.7848    0.0000 C   0  0  0  0  0  0  0  0  0  0  0  0
   -3.6463   -3.8844    0.0000 C   0  0  0  0  0  0  0  0  0  0  0  0
   -3.0682   -1.3515    0.0000 C   0  0  0  0  0  0  0  0  0  0  0  0
   -3.7190    0.0000    0.0000 C   0  0  0  0  0  0  0  0  0  0  0  0
   -4.5640    1.2394    0.0000 C   0  0  0  0  0  0  0  0  0  0  0  0
   -4.9341    2.6930    0.0000 C   0  0  0  0  0  0  0  0  0  0  0  0
   -3.5668    3.3099    0.0000 O   0  0  0  0  0  0  0  0  0  0  0  0
   -5.7791    3.9323    0.0000 C   0  0  0  0  0  0  0  0  0  0  0  0
   -6.6241    5.1717    0.0000 C   0  0  0  0  0  0  0  0  0  0  0  0
   -8.1199    5.0596    0.0000 C   0  0  0  0  0  0  0  0  0  0  0  0
   -8.7707    3.7081    0.0000 C   0  0  0  0  0  0  0  0  0  0  0  0
   -7.9257    2.4688    0.0000 O   0  0  0  0  0  0  0  0  0  0  0  0
   -6.4299    2.5809    0.0000 C   0  0  0  0  0  0  0  0  0  0  0  0
   -3.3328    4.3341    0.0000 H   0  0  0  0  0  0  0  0  0  0  0  0
   -1.8468    3.2374    0.0000 H   0  0  0  0  0  0  0  0  0  0  0  0
   -4.7850    2.9767    0.0000 H   0  0  0  0  0  0  0  0  0  0  0  0
   -2.0870    3.1059    0.0000 H   0  0  0  0  0  0  0  0  0  0  0  0
   -0.4330    2.6205    0.0000 H   0  0  0  0  0  0  0  0  0  0  0  0
    0.4120    1.9894    0.0000 H   0  0  0  0  0  0  0  0  0  0  0  0
    1.8302    1.1491    0.0000 H   0  0  0  0  0  0  0  0  0  0  0  0
    1.8302   -1.1491    0.0000 H   0  0  0  0  0  0  0  0  0  0  0  0
    0.4120   -1.9894    0.0000 H   0  0  0  0  0  0  0  0  0  0  0  0
    0.3247   -2.9321    0.0000 H   0  0  0  0  0  0  0  0  0  0  0  0
   -1.2384   -4.6167    0.0000 H   0  0  0  0  0  0  0  0  0  0  0  0
   -4.6665   -4.9840    0.0000 H   0  0  0  0  0  0  0  0  0  0  0  0
   -4.7459   -2.8641    0.0000 H   0  0  0  0  0  0  0  0  0  0  0  0
   -2.5467   -4.9046    0.0000 H   0  0  0  0  0  0  0  0  0  0  0  0
   -4.4645   -1.8995    0.0000 H   0  0  0  0  0  0  0  0  0  0  0  0
   -5.0180   -0.7500    0.0000 H   0  0  0  0  0  0  0  0  0  0  0  0
   -5.8458    0.4604    0.0000 H   0  0  0  0  0  0  0  0  0  0  0  0
   -3.6005    4.8095    0.0000 H   0  0  0  0  0  0  0  0  0  0  0  0
   -6.7771    2.8126    0.0000 H   0  0  0  0  0  0  0  0  0  0  0  0
   -6.9942    6.6253    0.0000 H   0  0  0  0  0  0  0  0  0  0  0  0
   -5.2568    5.7886    0.0000 H   0  0  0  0  0  0  0  0  0  0  0  0
   -9.5638    5.4659    0.0000 H   0  0  0  0  0  0  0  0  0  0  0  0
   -7.9705    6.5521    0.0000 H   0  0  0  0  0  0  0  0  0  0  0  0
   -9.8445    2.6608    0.0000 H   0  0  0  0  0  0  0  0  0  0  0  0
   -9.9886    4.5838    0.0000 H   0  0  0  0  0  0  0  0  0  0  0  0
   -6.5010    1.0826    0.0000 H   0  0  0  0  0  0  0  0  0  0  0  0
  1  2  1  0
  2  3  1  0
  3  4  1  0
  4  5  1  0
  5  6  1  0
  6  7  1  0
  7  8  1  0
  8  9  1  0
  9 10  1  0
  9 11  1  0
 11 12  1  0
 12 13  1  0
 13 14  1  0
 14 15  1  0
 14 16  1  0
 16 17  1  0
 17 18  1  0
 18 19  1  0
 19 20  1  0
 20 21  1  0
 12  2  1  0
 21 14  1  0
 13  2  1  0
 21 16  1  0
  6  4  1  0
  9  7  1  0
 11  7  1  0
  1 22  1  0
  1 23  1  0
  1 24  1  0
  3 25  1  0
  3 26  1  0
  4 27  1  0
  5 28  1  0
  5 29  1  0
  6 30  1  0
  8 31  1  0
  8 32  1  0
 10 33  1  0
 10 34  1  0
 10 35  1  0
 11 36  1  0
 12 37  1  0
 13 38  1  0
 15 39  1  0
 16 40  1  0
 17 41  1  0
 17 42  1  0
 18 43  1  0
 18 44  1  0
 19 45  1  0
 19 46  1  0
 21 47  1  0
M  END
$$$$
