
     RDKit          2D

 70 78  0  0  0  0  0  0  0  0999 V2000
    0.3170    4.6471    0.0000 C   0  0  0  0  0  0  0  0  0  0  0  0
   -0.4330    3.3481    0.0000 C   0  0  0  0  0  0  0  0  0  0  0  0
    0.3170    2.0490    0.0000 C   0  0  0  0  0  0  0  0  0  0  0  0
   -0.4330    0.7500    0.0000 C   0  0  0  0  0  0  0  0  0  0  0  0
    0.8660    0.0000    0.0000 C   0  0  0  0  0  0  0  0  0  0  0  0
   -0.4330   -0.7500    0.0000 C   0  0  0  0  0  0  0  0  0  0  0  0
   -1.1830   -2.0490    0.0000 C   0  0  0  0  0  0  0  0  0  0  0  0
   -1.9330   -0.7500    0.0000 C   0  0  0  0  0  0  0  0  0  0  0  0
   -3.3819   -1.1382    0.0000 O   0  0  0  0  0  0  0  0  0  0  0  0
   -3.7701   -2.5871    0.0000 C   0  0  0  0  0  0  0  0  0  0  0  0
   -1.9330    0.7500    0.0000 C   0  0  0  0  0  0  0  0  0  0  0  0
   -3.3819    0.3618    0.0000 C   0  0  0  0  0  0  0  0  0  0  0  0
   -2.6830    2.0490    0.0000 C   0  0  0  0  0  0  0  0  0  0  0  0
   -1.9330    3.3481    0.0000 C   0  0  0  0  0  0  0  0  0  0  0  0
   -3.2321    4.0981    0.0000 C   0  0  0  0  0  0  0  0  0  0  0  0
   -4.2357    5.2128    0.0000 C   0  0  0  0  0  0  0  0  0  0  0  0
   -3.8584    6.6645    0.0000 C   0  0  0  0  0  0  0  0  0  0  0  0
   -4.7581    7.8647    0.0000 C   0  0  0  0  0  0  0  0  0  0  0  0
   -3.3878    8.4749    0.0000 N   0  0  0  0  0  0  0  0  0  0  0  0
   -3.2310    9.9666    0.0000 C   0  0  0  0  0  0  0  0  0  0  0  0
   -4.4445   10.8483    0.0000 C   0  0  0  0  0  0  0  0  0  0  0  0
   -3.0742   11.4584    0.0000 C   0  0  0  0  0  0  0  0  0  0  0  0
   -1.8607   10.5767    0.0000 O   0  0  0  0  0  0  0  0  0  0  0  0
   -6.2574    7.9096    0.0000 C   0  0  0  0  0  0  0  0  0  0  0  0
   -7.2273    6.7654    0.0000 C   0  0  0  0  0  0  0  0  0  0  0  0
   -6.9374    5.2937    0.0000 C   0  0  0  0  0  0  0  0  0  0  0  0
   -5.6061    4.6027    0.0000 C   0  0  0  0  0  0  0  0  0  0  0  0
   -5.4493    3.1109    0.0000 C   0  0  0  0  0  0  0  0  0  0  0  0
   -3.9821    2.7990    0.0000 C   0  0  0  0  0  0  0  0  0  0  0  0
   -4.5196    1.3987    0.0000 C   0  0  0  0  0  0  0  0  0  0  0  0
   -5.0572   -0.0017    0.0000 C   0  0  0  0  0  0  0  0  0  0  0  0
    1.8170    4.6471    0.0000 H   0  0  0  0  0  0  0  0  0  0  0  0
   -0.4330    5.9462    0.0000 H   0  0  0  0  0  0  0  0  0  0  0  0
    1.4661    3.0132    0.0000 H   0  0  0  0  0  0  0  0  0  0  0  0
    1.1424    1.5131    0.0000 H   0  0  0  0  0  0  0  0  0  0  0  0
    1.5858    0.6712    0.0000 H   0  0  0  0  0  0  0  0  0  0  0  0
    1.8302   -1.1491    0.0000 H   0  0  0  0  0  0  0  0  0  0  0  0
   -0.0339   -3.0132    0.0000 H   0  0  0  0  0  0  0  0  0  0  0  0
   -1.8542   -2.7688    0.0000 H   0  0  0  0  0  0  0  0  0  0  0  0
   -4.1584   -4.0360    0.0000 H   0  0  0  0  0  0  0  0  0  0  0  0
   -5.2555   -2.3784    0.0000 H   0  0  0  0  0  0  0  0  0  0  0  0
   -2.8577   -2.9558    0.0000 H   0  0  0  0  0  0  0  0  0  0  0  0
   -4.2426   -0.1154    0.0000 H   0  0  0  0  0  0  0  0  0  0  0  0
   -3.2297   -0.7211    0.0000 H   0  0  0  0  0  0  0  0  0  0  0  0
   -3.9438    1.7525    0.0000 H   0  0  0  0  0  0  0  0  0  0  0  0
   -3.9688    1.2766    0.0000 H   0  0  0  0  0  0  0  0  0  0  0  0
   -1.3711    4.7388    0.0000 H   0  0  0  0  0  0  0  0  0  0  0  0
   -2.1530    5.1400    0.0000 H   0  0  0  0  0  0  0  0  0  0  0  0
   -2.7785    5.5684    0.0000 H   0  0  0  0  0  0  0  0  0  0  0  0
   -2.3994    6.3163    0.0000 H   0  0  0  0  0  0  0  0  0  0  0  0
   -2.5428    7.3851    0.0000 H   0  0  0  0  0  0  0  0  0  0  0  0
   -5.0480    9.3365    0.0000 H   0  0  0  0  0  0  0  0  0  0  0  0
   -2.0758    7.7477    0.0000 H   0  0  0  0  0  0  0  0  0  0  0  0
   -5.7436   10.0984    0.0000 H   0  0  0  0  0  0  0  0  0  0  0  0
   -5.2833   12.0919    0.0000 H   0  0  0  0  0  0  0  0  0  0  0  0
   -2.9174   12.9502    0.0000 H   0  0  0  0  0  0  0  0  0  0  0  0
   -6.2425    9.4095    0.0000 H   0  0  0  0  0  0  0  0  0  0  0  0
   -7.4947    8.7577    0.0000 H   0  0  0  0  0  0  0  0  0  0  0  0
   -8.2667    7.8470    0.0000 H   0  0  0  0  0  0  0  0  0  0  0  0
   -8.6618    6.3269    0.0000 H   0  0  0  0  0  0  0  0  0  0  0  0
   -8.4311    5.1554    0.0000 H   0  0  0  0  0  0  0  0  0  0  0  0
   -7.4890    3.8987    0.0000 H   0  0  0  0  0  0  0  0  0  0  0  0
   -5.6285    6.1025    0.0000 H   0  0  0  0  0  0  0  0  0  0  0  0
   -6.9381    2.9281    0.0000 H   0  0  0  0  0  0  0  0  0  0  0  0
   -5.7867    1.6494    0.0000 H   0  0  0  0  0  0  0  0  0  0  0  0
   -5.9751    1.7615    0.0000 H   0  0  0  0  0  0  0  0  0  0  0  0
   -3.4050    0.3949    0.0000 H   0  0  0  0  0  0  0  0  0  0  0  0
   -5.7614   -1.3261    0.0000 H   0  0  0  0  0  0  0  0  0  0  0  0
   -6.4575    0.5358    0.0000 H   0  0  0  0  0  0  0  0  0  0  0  0
   -3.9425   -1.0055    0.0000 H   0  0  0  0  0  0  0  0  0  0  0  0
  1  2  2  3
  2  3  1  0
  4  3  1  1
  4  5  1  0
  6  5  1  6
  6  7  1  0
  7  8  1  0
  8  9  1  6
  9 10  1  0
  8 11  1  0
 11 12  1  6
 11 13  1  0
 13 14  1  0
 14 15  1  0
 15 16  1  0
 16 17  1  0
 17 18  1  0
 18 19  1  0
 20 19  1  1
 20 21  1  0
 21 22  1  0
 22 23  1  0
 18 24  1  0
 24 25  1  0
 25 26  1  0
 26 27  1  0
 27 28  1  0
 28 29  1  0
 29 30  1  6
 30 31  1  0
 14  2  1  0
 29 15  1  0
  6  4  1  0
 29 13  1  0
 11  4  1  0
 27 16  1  0
  8  6  1  0
 22 20  1  0
 23 20  1  0
  1 32  1  0
  1 33  1  0
  3 34  1  0
  3 35  1  0
  5 36  1  0
  5 37  1  0
  7 38  1  0
  7 39  1  0
 10 40  1  0
 10 41  1  0
 10 42  1  0
 12 43  1  0
 12 44  1  0
 12 45  1  0
 13 46  1  1
 14 47  1  1
 15 48  1  1
 16 49  1  1
 17 50  1  0
 17 51  1  0
 18 52  1  1
 19 53  1  0
 21 54  1  0
 21 55  1  0
 22 56  1  6
 24 57  1  0
 24 58  1  0
 25 59  1  0
 25 60  1  0
 26 61  1  0
 26 62  1  0
 27 63  1  1
 28 64  1  0
 28 65  1  0
 30 66  1  0
 30 67  1  0
 31 68  1  0
 31 69  1  0
 31 70  1  0
M  END
$$$$
