
     RDKit          2D

102107  0  0  0  0  0  0  0  0999 V2000
   -9.5077    8.8658    0.0000 C   0  0  0  0  0  0  0  0  0  0  0  0
   -8.0245    9.0893    0.0000 C   0  0  0  0  0  0  0  0  0  0  0  0
   -7.0893    7.9166    0.0000 C   0  0  0  0  0  0  0  0  0  0  0  0
   -6.1540    6.7438    0.0000 C   0  0  0  0  0  0  0  0  0  0  0  0
   -7.3268    5.8086    0.0000 N   0  0  0  0  0  0  0  0  0  0  0  0
   -8.7231    6.3566    0.0000 C   0  0  0  0  0  0  0  0  0  0  0  0
   -5.2188    5.5711    0.0000 C   0  0  0  0  0  0  0  0  0  0  0  0
   -4.2835    4.3983    0.0000 C   0  0  0  0  0  0  0  0  0  0  0  0
   -6.3915    4.6358    0.0000 C   0  0  0  0  0  0  0  0  0  0  0  0
   -7.5643    3.7006    0.0000 C   0  0  0  0  0  0  0  0  0  0  0  0
   -8.7370    2.7654    0.0000 C   0  0  0  0  0  0  0  0  0  0  0  0
   -9.9098    1.8301    0.0000 C   0  0  0  0  0  0  0  0  0  0  0  0
  -11.0825    0.8949    0.0000 C   0  0  0  0  0  0  0  0  0  0  0  0
  -12.4788    1.4429    0.0000 C   0  0  0  0  0  0  0  0  0  0  0  0
  -10.8590   -0.5883    0.0000 C   0  0  0  0  0  0  0  0  0  0  0  0
   -6.6290    2.5279    0.0000 C   0  0  0  0  0  0  0  0  0  0  0  0
   -5.6938    1.3551    0.0000 N   0  0  0  0  0  0  0  0  0  0  0  0
   -6.2418   -0.0412    0.0000 C   0  0  0  0  0  0  0  0  0  0  0  0
   -6.7898   -1.4375    0.0000 C   0  0  0  0  0  0  0  0  0  0  0  0
   -5.3935   -1.9855    0.0000 C   0  0  0  0  0  0  0  0  0  0  0  0
   -5.9415   -3.3818    0.0000 C   0  0  0  0  0  0  0  0  0  0  0  0
   -3.9972   -2.5335    0.0000 C   0  0  0  0  0  0  0  0  0  0  0  0
   -4.8455   -0.5892    0.0000 C   0  0  0  0  0  0  0  0  0  0  0  0
   -3.4492   -1.1372    0.0000 C   0  0  0  0  0  0  0  0  0  0  0  0
   -2.0529   -1.6852    0.0000 C   0  0  0  0  0  0  0  0  0  0  0  0
   -0.6566   -2.2332    0.0000 C   0  0  0  0  0  0  0  0  0  0  0  0
    0.3637   -3.3328    0.0000 C   0  0  0  0  0  0  0  0  0  0  0  0
    1.8595   -3.2207    0.0000 N   0  0  0  0  0  0  0  0  0  0  0  0
    2.7045   -1.9814    0.0000 C   0  0  0  0  0  0  0  0  0  0  0  0
    3.7247   -3.0809    0.0000 N   0  0  0  0  0  0  0  0  0  0  0  0
    2.2623   -0.5480    0.0000 P   0  0  0  0  0  0  0  0  0  0  0  0
    3.7581   -0.4359    0.0000 N   0  0  0  0  0  0  0  0  0  0  0  0
    4.7784   -1.5355    0.0000 C   0  0  0  0  0  0  0  0  0  0  0  0
    4.5548   -3.0187    0.0000 C   0  0  0  0  0  0  0  0  0  0  0  0
    3.2558   -3.7687    0.0000 N   0  0  0  0  0  0  0  0  0  0  0  0
    3.4794   -2.2855    0.0000 C   0  0  0  0  0  0  0  0  0  0  0  0
    0.8660    0.0000    0.0000 C   0  0  0  0  0  0  0  0  0  0  0  0
   -0.4330    0.7500    0.0000 C   0  0  0  0  0  0  0  0  0  0  0  0
   -0.1211    2.2172    0.0000 O   0  0  0  0  0  0  0  0  0  0  0  0
    1.3706    2.3740    0.0000 P   0  0  0  0  0  0  0  0  0  0  0  0
    2.1206    3.6731    0.0000 Cl  0  0  0  0  0  0  0  0  0  0  0  0
    1.9807    1.0037    0.0000 C   0  0  0  0  0  0  0  0  0  0  0  0
    3.2798    1.7537    0.0000 F   0  0  0  0  0  0  0  0  0  0  0  0
    3.0038   -0.0933    0.0000 F   0  0  0  0  0  0  0  0  0  0  0  0
   -0.4330   -0.7500    0.0000 C   0  0  0  0  0  0  0  0  0  0  0  0
  -10.4430   10.0385    0.0000 H   0  0  0  0  0  0  0  0  0  0  0  0
  -10.2219    7.5467    0.0000 H   0  0  0  0  0  0  0  0  0  0  0  0
   -7.4765   10.4856    0.0000 H   0  0  0  0  0  0  0  0  0  0  0  0
   -8.5193    7.4638    0.0000 H   0  0  0  0  0  0  0  0  0  0  0  0
   -5.9165    8.8518    0.0000 H   0  0  0  0  0  0  0  0  0  0  0  0
   -4.9813    7.6791    0.0000 H   0  0  0  0  0  0  0  0  0  0  0  0
   -7.8259    4.3941    0.0000 H   0  0  0  0  0  0  0  0  0  0  0  0
  -10.1758    6.7303    0.0000 H   0  0  0  0  0  0  0  0  0  0  0  0
   -9.4372    5.0375    0.0000 H   0  0  0  0  0  0  0  0  0  0  0  0
   -8.3494    7.8093    0.0000 H   0  0  0  0  0  0  0  0  0  0  0  0
   -4.0460    6.5063    0.0000 H   0  0  0  0  0  0  0  0  0  0  0  0
   -3.3483    3.2256    0.0000 H   0  0  0  0  0  0  0  0  0  0  0  0
   -3.0055    5.1836    0.0000 H   0  0  0  0  0  0  0  0  0  0  0  0
   -3.2335    5.4695    0.0000 H   0  0  0  0  0  0  0  0  0  0  0  0
   -5.3203    3.5858    0.0000 H   0  0  0  0  0  0  0  0  0  0  0  0
   -7.5827    5.5474    0.0000 H   0  0  0  0  0  0  0  0  0  0  0  0
   -8.6355    4.7506    0.0000 H   0  0  0  0  0  0  0  0  0  0  0  0
   -9.6723    3.9381    0.0000 H   0  0  0  0  0  0  0  0  0  0  0  0
   -7.9517    1.4874    0.0000 H   0  0  0  0  0  0  0  0  0  0  0  0
   -8.9745    0.6574    0.0000 H   0  0  0  0  0  0  0  0  0  0  0  0
  -10.8450    3.0029    0.0000 H   0  0  0  0  0  0  0  0  0  0  0  0
  -13.6516    0.5077    0.0000 H   0  0  0  0  0  0  0  0  0  0  0  0
  -12.7024    2.9262    0.0000 H   0  0  0  0  0  0  0  0  0  0  0  0
  -10.6354   -2.0716    0.0000 H   0  0  0  0  0  0  0  0  0  0  0  0
  -12.3422   -0.8119    0.0000 H   0  0  0  0  0  0  0  0  0  0  0  0
   -9.3757   -0.3648    0.0000 H   0  0  0  0  0  0  0  0  0  0  0  0
   -7.6790    1.4566    0.0000 H   0  0  0  0  0  0  0  0  0  0  0  0
   -5.3510    3.3132    0.0000 H   0  0  0  0  0  0  0  0  0  0  0  0
   -4.2489    1.7578    0.0000 H   0  0  0  0  0  0  0  0  0  0  0  0
   -7.6381    0.5068    0.0000 H   0  0  0  0  0  0  0  0  0  0  0  0
   -8.1861   -0.8895    0.0000 H   0  0  0  0  0  0  0  0  0  0  0  0
   -7.5040   -2.7566    0.0000 H   0  0  0  0  0  0  0  0  0  0  0  0
   -6.4895   -4.7781    0.0000 H   0  0  0  0  0  0  0  0  0  0  0  0
   -4.6224   -4.0960    0.0000 H   0  0  0  0  0  0  0  0  0  0  0  0
   -7.3942   -3.0081    0.0000 H   0  0  0  0  0  0  0  0  0  0  0  0
   -2.6781   -3.2477    0.0000 H   0  0  0  0  0  0  0  0  0  0  0  0
   -4.3709   -3.9862    0.0000 H   0  0  0  0  0  0  0  0  0  0  0  0
   -3.1276   -1.3113    0.0000 H   0  0  0  0  0  0  0  0  0  0  0  0
   -4.1314    0.7299    0.0000 H   0  0  0  0  0  0  0  0  0  0  0  0
   -2.9012    0.2591    0.0000 H   0  0  0  0  0  0  0  0  0  0  0  0
   -3.6431   -2.6246    0.0000 H   0  0  0  0  0  0  0  0  0  0  0  0
   -1.6792   -0.2325    0.0000 H   0  0  0  0  0  0  0  0  0  0  0  0
   -2.4266   -3.1379    0.0000 H   0  0  0  0  0  0  0  0  0  0  0  0
   -1.6463   -3.3604    0.0000 H   0  0  0  0  0  0  0  0  0  0  0  0
   -0.8342   -4.2356    0.0000 H   0  0  0  0  0  0  0  0  0  0  0  0
    0.8058   -4.7662    0.0000 H   0  0  0  0  0  0  0  0  0  0  0  0
    4.1464   -1.5680    0.0000 H   0  0  0  0  0  0  0  0  0  0  0  0
    5.1355   -2.5714    0.0000 H   0  0  0  0  0  0  0  0  0  0  0  0
    3.6426   -4.5787    0.0000 H   0  0  0  0  0  0  0  0  0  0  0  0
    4.3062    0.9604    0.0000 H   0  0  0  0  0  0  0  0  0  0  0  0
    6.2118   -1.0934    0.0000 H   0  0  0  0  0  0  0  0  0  0  0  0
    6.0258   -2.7251    0.0000 H   0  0  0  0  0  0  0  0  0  0  0  0
    4.9970   -4.4521    0.0000 H   0  0  0  0  0  0  0  0  0  0  0  0
    2.2949   -1.3651    0.0000 H   0  0  0  0  0  0  0  0  0  0  0  0
    2.0009   -2.0323    0.0000 H   0  0  0  0  0  0  0  0  0  0  0  0
   -1.9248    0.9068    0.0000 H   0  0  0  0  0  0  0  0  0  0  0  0
   -1.9040   -0.4564    0.0000 H   0  0  0  0  0  0  0  0  0  0  0  0
  1  2  2  3
  2  3  1  0
  3  4  1  0
  4  5  1  0
  5  6  1  0
  4  7  1  0
  7  8  1  0
  7  9  1  0
  9 10  1  0
 10 11  1  0
 11 12  1  0
 12 13  1  0
 13 14  2  3
 13 15  1  0
 10 16  1  0
 16 17  1  0
 17 18  1  0
 18 19  1  0
 19 20  1  0
 20 21  1  0
 20 22  1  0
 20 23  1  0
 23 24  1  0
 24 25  1  0
 25 26  1  0
 26 27  1  0
 27 28  1  0
 28 29  1  0
 29 30  1  0
 29 31  1  0
 31 32  1  0
 32 33  1  0
 33 34  1  0
 34 35  1  0
 35 36  1  0
 31 37  1  0
 37 38  1  0
 38 39  1  0
 39 40  1  0
 40 41  1  0
 40 42  1  0
 42 43  1  0
 42 44  1  0
 38 45  1  0
 23 18  1  0
 45 26  1  0
 35 28  1  0
 42 37  1  0
 36 33  1  0
 45 37  1  0
  1 46  1  0
  1 47  1  0
  2 48  1  0
  3 49  1  0
  3 50  1  0
  4 51  1  0
  5 52  1  0
  6 53  1  0
  6 54  1  0
  6 55  1  0
  7 56  1  0
  8 57  1  0
  8 58  1  0
  8 59  1  0
  9 60  1  0
  9 61  1  0
 10 62  1  0
 11 63  1  0
 11 64  1  0
 12 65  1  0
 12 66  1  0
 14 67  1  0
 14 68  1  0
 15 69  1  0
 15 70  1  0
 15 71  1  0
 16 72  1  0
 16 73  1  0
 17 74  1  0
 18 75  1  0
 19 76  1  0
 19 77  1  0
 21 78  1  0
 21 79  1  0
 21 80  1  0
 22 81  1  0
 22 82  1  0
 22 83  1  0
 23 84  1  0
 24 85  1  0
 24 86  1  0
 25 87  1  0
 25 88  1  0
 26 89  1  0
 27 90  1  0
 27 91  1  0
 29 92  1  0
 30 93  1  0
 30 94  1  0
 32 95  1  0
 33 96  1  0
 34 97  1  0
 34 98  1  0
 36 99  1  0
 36100  1  0
 38101  1  0
 45102  1  0
M  END
$$$$
