
     RDKit          2D

 33 34  0  0  0  0  0  0  0  0999 V2000
    6.8739    7.3647    0.0000 O   0  0  0  0  0  0  0  0  0  0  0  0
    5.7249    6.4005    0.0000 C   0  0  0  0  0  0  0  0  0  0  0  0
    6.4749    5.1015    0.0000 C   0  0  0  0  0  0  0  0  0  0  0  0
    4.9749    5.1015    0.0000 N   0  0  0  0  0  0  0  0  0  0  0  0
    3.6758    4.3515    0.0000 C   0  0  0  0  0  0  0  0  0  0  0  0
    2.3768    3.6015    0.0000 C   0  0  0  0  0  0  0  0  0  0  0  0
    1.0777    2.8515    0.0000 As  0  0  0  0  0  3  0  0  0  0  0  0
    1.0777    1.3515    0.0000 C   0  0  0  0  0  0  0  0  0  0  0  0
    1.7286    0.0000    0.0000 C   0  0  0  0  0  0  0  0  0  0  0  0
    1.0777   -1.3515    0.0000 N   0  0  0  0  0  0  0  0  0  0  0  0
   -0.3846   -1.6852    0.0000 C   0  0  0  0  0  0  0  0  0  0  0  0
   -1.5574   -0.7500    0.0000 C   0  0  0  0  0  0  0  0  0  0  0  0
   -1.5574    0.7500    0.0000 C   0  0  0  0  0  0  0  0  0  0  0  0
   -0.3846    1.6852    0.0000 C   0  0  0  0  0  0  0  0  0  0  0  0
    6.6135    8.8419    0.0000 H   0  0  0  0  0  0  0  0  0  0  0  0
    4.5758    7.3647    0.0000 H   0  0  0  0  0  0  0  0  0  0  0  0
    6.7353    3.6242    0.0000 H   0  0  0  0  0  0  0  0  0  0  0  0
    7.8844    5.6145    0.0000 H   0  0  0  0  0  0  0  0  0  0  0  0
    2.9258    5.6505    0.0000 H   0  0  0  0  0  0  0  0  0  0  0  0
    4.4258    3.0524    0.0000 H   0  0  0  0  0  0  0  0  0  0  0  0
    1.6268    4.9005    0.0000 H   0  0  0  0  0  0  0  0  0  0  0  0
    3.2795    2.4035    0.0000 H   0  0  0  0  0  0  0  0  0  0  0  0
    0.2918    3.4438    0.0000 H   0  0  0  0  0  0  0  0  0  0  0  0
    2.5699    1.5045    0.0000 H   0  0  0  0  0  0  0  0  0  0  0  0
    3.2286   -0.0000    0.0000 H   0  0  0  0  0  0  0  0  0  0  0  0
    0.2662   -3.0367    0.0000 H   0  0  0  0  0  0  0  0  0  0  0  0
   -1.4346   -2.7564    0.0000 H   0  0  0  0  0  0  0  0  0  0  0  0
   -2.3681   -2.0120    0.0000 H   0  0  0  0  0  0  0  0  0  0  0  0
   -3.0496   -0.5970    0.0000 H   0  0  0  0  0  0  0  0  0  0  0  0
   -3.0496    0.5970    0.0000 H   0  0  0  0  0  0  0  0  0  0  0  0
   -2.3681    2.0120    0.0000 H   0  0  0  0  0  0  0  0  0  0  0  0
   -1.4346    2.7564    0.0000 H   0  0  0  0  0  0  0  0  0  0  0  0
   -0.3038    2.6661    0.0000 H   0  0  0  0  0  0  0  0  0  0  0  0
  1  2  1  0
  2  3  1  0
  3  4  1  0
  4  5  1  0
  5  6  1  0
  6  7  1  0
  7  8  1  0
  8  9  1  0
  9 10  2  0
 10 11  1  0
 11 12  1  0
 12 13  1  0
 13 14  1  0
  4  2  1  0
 14  8  1  0
  1 15  1  0
  2 16  1  0
  3 17  1  0
  3 18  1  0
  5 19  1  0
  5 20  1  0
  6 21  1  0
  6 22  1  0
  7 23  1  0
  8 24  1  0
  9 25  1  0
 11 26  1  0
 11 27  1  0
 12 28  1  0
 12 29  1  0
 13 30  1  0
 13 31  1  0
 14 32  1  0
 14 33  1  0
M  END
$$$$
