
     RDKit          2D

 27 29  0  0  0  0  0  0  0  0999 V2000
   -5.8301   -2.5981    0.0000 C   0  0  0  0  0  0  0  0  0  0  0  0
   -4.5311   -1.8481    0.0000 O   0  0  0  0  0  0  0  0  0  0  0  0
   -3.2321   -2.5981    0.0000 C   0  0  0  0  0  0  0  0  0  0  0  0
   -3.9821   -3.8971    0.0000 C   0  0  0  0  0  0  0  0  0  0  0  0
   -2.4821   -1.2990    0.0000 C   0  0  0  0  0  0  0  0  0  0  0  0
   -1.7321    0.0000    0.0000 C   0  0  0  0  0  0  0  0  0  0  0  0
   -0.4330    0.7500    0.0000 C   0  0  0  0  0  0  0  0  0  0  0  0
    0.8660    0.0000    0.0000 N   0  0  0  0  0  0  0  0  0  0  0  0
   -0.4330   -0.7500    0.0000 C   0  0  0  0  0  0  0  0  0  0  0  0
   -1.1830   -2.0490    0.0000 C   0  0  0  0  0  0  0  0  0  0  0  0
    0.1160   -2.7990    0.0000 C   0  0  0  0  0  0  0  0  0  0  0  0
   -1.9330   -3.3481    0.0000 O   0  0  0  0  0  0  0  0  0  0  0  0
   -7.1292   -3.3481    0.0000 H   0  0  0  0  0  0  0  0  0  0  0  0
   -6.5801   -1.2990    0.0000 H   0  0  0  0  0  0  0  0  0  0  0  0
   -5.2441   -3.9788    0.0000 H   0  0  0  0  0  0  0  0  0  0  0  0
   -2.6587   -3.1519    0.0000 H   0  0  0  0  0  0  0  0  0  0  0  0
   -4.7321   -5.1962    0.0000 H   0  0  0  0  0  0  0  0  0  0  0  0
   -2.6830   -4.6471    0.0000 H   0  0  0  0  0  0  0  0  0  0  0  0
   -5.4636   -3.6626    0.0000 H   0  0  0  0  0  0  0  0  0  0  0  0
   -3.7811   -0.5490    0.0000 H   0  0  0  0  0  0  0  0  0  0  0  0
   -2.7927    1.0607    0.0000 H   0  0  0  0  0  0  0  0  0  0  0  0
   -0.4330    2.2500    0.0000 H   0  0  0  0  0  0  0  0  0  0  0  0
    2.3660    0.0000    0.0000 H   0  0  0  0  0  0  0  0  0  0  0  0
    1.4151   -3.5490    0.0000 H   0  0  0  0  0  0  0  0  0  0  0  0
   -0.4700   -4.1798    0.0000 H   0  0  0  0  0  0  0  0  0  0  0  0
    0.8660   -1.5000    0.0000 H   0  0  0  0  0  0  0  0  0  0  0  0
   -1.3470   -4.7288    0.0000 H   0  0  0  0  0  0  0  0  0  0  0  0
  1  2  1  0
  2  3  1  0
  3  4  1  0
  3  5  1  0
  5  6  1  0
  6  7  1  0
  7  8  1  0
  8  9  1  0
  9 10  1  0
 10 11  1  0
 10 12  1  0
 10  5  1  0
  9  6  1  0
  9  7  1  0
  1 13  1  0
  1 14  1  0
  1 15  1  0
  3 16  1  0
  4 17  1  0
  4 18  1  0
  4 19  1  0
  5 20  1  0
  6 21  1  0
  7 22  1  0
  8 23  1  0
 11 24  1  0
 11 25  1  0
 11 26  1  0
 12 27  1  0
M  END
$$$$
