
     RDKit          2D

 93 97  0  0  0  0  0  0  0  0999 V2000
   -1.2737    9.3281    0.0000 C   0  0  0  0  0  0  0  0  0  0  0  0
   -0.8939    7.8769    0.0000 C   0  0  0  0  0  0  0  0  0  0  0  0
   -0.5141    6.4258    0.0000 C   0  0  0  0  0  0  0  0  0  0  0  0
   -0.1343    4.9747    0.0000 C   0  0  0  0  0  0  0  0  0  0  0  0
    0.9804    3.9710    0.0000 C   0  0  0  0  0  0  0  0  0  0  0  0
    1.1892    2.4856    0.0000 C   0  0  0  0  0  0  0  0  0  0  0  0
    0.3943    1.2135    0.0000 C   0  0  0  0  0  0  0  0  0  0  0  0
    1.2760    0.0000    0.0000 C   0  0  0  0  0  0  0  0  0  0  0  0
    0.3943   -1.2135    0.0000 C   0  0  0  0  0  0  0  0  0  0  0  0
   -0.2158   -2.5838    0.0000 C   0  0  0  0  0  0  0  0  0  0  0  0
    1.1545   -3.1939    0.0000 C   0  0  0  0  0  0  0  0  0  0  0  0
   -0.8259   -3.9542    0.0000 O   0  0  0  0  0  0  0  0  0  0  0  0
   -1.0323   -0.7500    0.0000 C   0  0  0  0  0  0  0  0  0  0  0  0
   -1.0323    0.7500    0.0000 C   0  0  0  0  0  0  0  0  0  0  0  0
   -2.4231    1.3119    0.0000 C   0  0  0  0  0  0  0  0  0  0  0  0
   -3.1273    2.6363    0.0000 C   0  0  0  0  0  0  0  0  0  0  0  0
   -4.1941    1.5819    0.0000 C   0  0  0  0  0  0  0  0  0  0  0  0
   -5.4178    2.4494    0.0000 C   0  0  0  0  0  0  0  0  0  0  0  0
   -6.6415    3.3169    0.0000 C   0  0  0  0  0  0  0  0  0  0  0  0
   -7.5090    2.0932    0.0000 C   0  0  0  0  0  0  0  0  0  0  0  0
   -7.2571    0.6145    0.0000 C   0  0  0  0  0  0  0  0  0  0  0  0
   -7.0052   -0.8642    0.0000 C   0  0  0  0  0  0  0  0  0  0  0  0
   -6.7534   -2.3430    0.0000 C   0  0  0  0  0  0  0  0  0  0  0  0
   -6.5015   -3.8217    0.0000 C   0  0  0  0  0  0  0  0  0  0  0  0
   -6.7706   -5.2973    0.0000 N   0  0  0  0  0  0  0  0  0  0  0  0
   -7.9140   -4.3265    0.0000 C   0  0  0  0  0  0  0  0  0  0  0  0
   -8.6564   -3.0231    0.0000 C   0  0  0  0  0  0  0  0  0  0  0  0
   -8.7327    2.9607    0.0000 C   0  0  0  0  0  0  0  0  0  0  0  0
   -7.8652    4.1844    0.0000 C   0  0  0  0  0  0  0  0  0  0  0  0
   -6.9977    5.4081    0.0000 C   0  0  0  0  0  0  0  0  0  0  0  0
   -9.0889    5.0519    0.0000 C   0  0  0  0  0  0  0  0  0  0  0  0
  -10.3126    5.9194    0.0000 C   0  0  0  0  0  0  0  0  0  0  0  0
   -4.8359    0.2261    0.0000 C   0  0  0  0  0  0  0  0  0  0  0  0
   -3.3409    0.3481    0.0000 C   0  0  0  0  0  0  0  0  0  0  0  0
   -2.8154    4.1036    0.0000 C   0  0  0  0  0  0  0  0  0  0  0  0
   -1.6334    5.0270    0.0000 C   0  0  0  0  0  0  0  0  0  0  0  0
   -2.7248    8.9483    0.0000 H   0  0  0  0  0  0  0  0  0  0  0  0
    0.1774    9.7079    0.0000 H   0  0  0  0  0  0  0  0  0  0  0  0
   -1.6535   10.7792    0.0000 H   0  0  0  0  0  0  0  0  0  0  0  0
    0.5572    8.2567    0.0000 H   0  0  0  0  0  0  0  0  0  0  0  0
   -2.3450    7.4971    0.0000 H   0  0  0  0  0  0  0  0  0  0  0  0
    0.9370    6.8056    0.0000 H   0  0  0  0  0  0  0  0  0  0  0  0
   -2.0140    6.4084    0.0000 H   0  0  0  0  0  0  0  0  0  0  0  0
    1.1469    5.7547    0.0000 H   0  0  0  0  0  0  0  0  0  0  0  0
    2.3048    4.6752    0.0000 H   0  0  0  0  0  0  0  0  0  0  0  0
    2.6564    2.1737    0.0000 H   0  0  0  0  0  0  0  0  0  0  0  0
    1.7277    1.4247    0.0000 H   0  0  0  0  0  0  0  0  0  0  0  0
    2.3819    0.7743    0.0000 H   0  0  0  0  0  0  0  0  0  0  0  0
    2.3907   -1.0037    0.0000 H   0  0  0  0  0  0  0  0  0  0  0  0
    1.2096   -1.5596    0.0000 H   0  0  0  0  0  0  0  0  0  0  0  0
   -0.9781   -2.3508    0.0000 H   0  0  0  0  0  0  0  0  0  0  0  0
    0.5444   -4.5643    0.0000 H   0  0  0  0  0  0  0  0  0  0  0  0
    1.6107   -2.4347    0.0000 H   0  0  0  0  0  0  0  0  0  0  0  0
    2.5248   -3.8041    0.0000 H   0  0  0  0  0  0  0  0  0  0  0  0
   -2.3177   -4.1110    0.0000 H   0  0  0  0  0  0  0  0  0  0  0  0
   -1.2918   -1.5037    0.0000 H   0  0  0  0  0  0  0  0  0  0  0  0
   -2.5177   -0.9588    0.0000 H   0  0  0  0  0  0  0  0  0  0  0  0
    0.2113   -0.0888    0.0000 H   0  0  0  0  0  0  0  0  0  0  0  0
   -3.7788    0.6700    0.0000 H   0  0  0  0  0  0  0  0  0  0  0  0
   -2.7435   -0.1535    0.0000 H   0  0  0  0  0  0  0  0  0  0  0  0
   -4.4434    3.3559    0.0000 H   0  0  0  0  0  0  0  0  0  0  0  0
   -6.2853    1.2257    0.0000 H   0  0  0  0  0  0  0  0  0  0  0  0
   -4.8722    3.8466    0.0000 H   0  0  0  0  0  0  0  0  0  0  0  0
   -5.6313    4.4257    0.0000 H   0  0  0  0  0  0  0  0  0  0  0  0
   -8.7358    0.3626    0.0000 H   0  0  0  0  0  0  0  0  0  0  0  0
   -5.7614    0.5010    0.0000 H   0  0  0  0  0  0  0  0  0  0  0  0
   -5.5069   -0.7945    0.0000 H   0  0  0  0  0  0  0  0  0  0  0  0
   -8.4839   -1.1161    0.0000 H   0  0  0  0  0  0  0  0  0  0  0  0
   -5.2550   -2.2732    0.0000 H   0  0  0  0  0  0  0  0  0  0  0  0
   -8.2491   -2.2295    0.0000 H   0  0  0  0  0  0  0  0  0  0  0  0
   -5.0015   -3.8304    0.0000 H   0  0  0  0  0  0  0  0  0  0  0  0
   -6.2657   -6.7098    0.0000 H   0  0  0  0  0  0  0  0  0  0  0  0
   -9.0686   -5.2840    0.0000 H   0  0  0  0  0  0  0  0  0  0  0  0
   -9.9598   -3.7655    0.0000 H   0  0  0  0  0  0  0  0  0  0  0  0
   -7.5714   -1.9873    0.0000 H   0  0  0  0  0  0  0  0  0  0  0  0
   -9.3988   -1.7197    0.0000 H   0  0  0  0  0  0  0  0  0  0  0  0
  -10.2114    2.7088    0.0000 H   0  0  0  0  0  0  0  0  0  0  0  0
   -8.1065    6.4183    0.0000 H   0  0  0  0  0  0  0  0  0  0  0  0
   -5.6774    4.6962    0.0000 H   0  0  0  0  0  0  0  0  0  0  0  0
   -6.1302    6.6318    0.0000 H   0  0  0  0  0  0  0  0  0  0  0  0
   -9.9564    3.8282    0.0000 H   0  0  0  0  0  0  0  0  0  0  0  0
   -8.3770    6.3722    0.0000 H   0  0  0  0  0  0  0  0  0  0  0  0
  -11.1801    4.6957    0.0000 H   0  0  0  0  0  0  0  0  0  0  0  0
   -9.4451    7.1431    0.0000 H   0  0  0  0  0  0  0  0  0  0  0  0
  -11.5363    6.7869    0.0000 H   0  0  0  0  0  0  0  0  0  0  0  0
   -6.3355    0.2609    0.0000 H   0  0  0  0  0  0  0  0  0  0  0  0
   -4.6098   -1.2568    0.0000 H   0  0  0  0  0  0  0  0  0  0  0  0
   -3.1408   -1.1384    0.0000 H   0  0  0  0  0  0  0  0  0  0  0  0
   -1.8668    0.6257    0.0000 H   0  0  0  0  0  0  0  0  0  0  0  0
   -3.5273    5.4238    0.0000 H   0  0  0  0  0  0  0  0  0  0  0  0
   -4.2955    4.3469    0.0000 H   0  0  0  0  0  0  0  0  0  0  0  0
   -1.6946    6.5258    0.0000 H   0  0  0  0  0  0  0  0  0  0  0  0
   -2.8571    5.8945    0.0000 H   0  0  0  0  0  0  0  0  0  0  0  0
  1  2  1  0
  2  3  1  0
  3  4  1  0
  4  5  1  0
  5  6  2  0
  6  7  1  0
  7  8  1  0
  8  9  1  0
  9 10  1  0
 10 11  1  0
 10 12  1  0
  9 13  1  0
 13 14  1  0
 14 15  1  0
 15 16  1  0
 16 17  1  0
 17 18  1  0
 18 19  1  0
 19 20  1  0
 20 21  1  0
 21 22  1  0
 22 23  1  0
 23 24  1  0
 24 25  1  0
 25 26  1  0
 26 27  1  0
 20 28  2  0
 28 29  1  0
 29 30  1  0
 29 31  1  0
 31 32  1  0
 17 33  1  0
 33 34  1  0
 16 35  1  0
 35 36  1  0
 36  4  1  0
 14  7  1  0
 34 17  1  0
 29 19  1  0
 26 24  1  0
  1 37  1  0
  1 38  1  0
  1 39  1  0
  2 40  1  0
  2 41  1  0
  3 42  1  0
  3 43  1  0
  4 44  1  0
  5 45  1  0
  6 46  1  0
  7 47  1  0
  8 48  1  0
  8 49  1  0
  9 50  1  0
 10 51  1  0
 11 52  1  0
 11 53  1  0
 11 54  1  0
 12 55  1  0
 13 56  1  0
 13 57  1  0
 14 58  1  0
 15 59  1  0
 15 60  1  0
 16 61  1  0
 18 62  1  0
 18 63  1  0
 19 64  1  0
 21 65  1  0
 21 66  1  0
 22 67  1  0
 22 68  1  0
 23 69  1  0
 23 70  1  0
 24 71  1  0
 25 72  1  0
 26 73  1  0
 27 74  1  0
 27 75  1  0
 27 76  1  0
 28 77  1  0
 30 78  1  0
 30 79  1  0
 30 80  1  0
 31 81  1  0
 31 82  1  0
 32 83  1  0
 32 84  1  0
 32 85  1  0
 33 86  1  0
 33 87  1  0
 34 88  1  0
 34 89  1  0
 35 90  1  0
 35 91  1  0
 36 92  1  0
 36 93  1  0
M  END
$$$$
