
     RDKit          3D

 29 38  0  0  0  0  0  0  0  0999 V2000
   15.6868  -26.4668  -15.3295 N   0  0  0  0  0  0  0  0  0  0  0  0
   14.4484  -26.3667  -14.6017 C   0  0  0  0  0  0  0  0  0  0  0  0
   16.6462  -26.6385  -14.1838 C   0  0  0  0  0  0  0  0  0  0  0  0
   18.1759  -27.3949  -16.2353 C   0  0  0  0  0  0  0  0  0  0  0  0
   14.3484  -25.1428  -13.8175 C   0  0  0  0  0  0  0  0  0  0  0  0
   15.7254  -25.5106  -14.2865 C   0  0  0  0  0  0  0  0  0  0  0  0
   19.1635  -25.6309  -14.4566 C   0  0  0  0  0  0  0  0  0  0  0  0
   13.4526  -25.3273  -15.0303 C   0  0  0  0  0  0  0  0  0  0  0  0
   18.1040  -26.8140  -14.7235 C   0  0  0  0  0  0  0  0  0  0  0  0
   19.4375  -27.3394  -17.2076 C   0  0  0  0  0  0  0  0  0  0  0  0
   20.5158  -25.9279  -13.6380 C   0  0  0  0  0  0  0  0  0  0  0  0
   21.4216  -27.0321  -14.2356 C   0  0  0  0  0  0  0  0  0  0  0  0
   21.2327  -28.4118  -13.5168 N   0  0  0  0  0  0  0  0  0  0  0  0
   20.7070  -26.4174  -16.9635 C   0  0  0  0  0  0  0  0  0  0  0  0
   20.2056  -29.3404  -14.0207 C   0  0  0  0  0  0  0  0  0  0  0  0
   20.4773  -30.6988  -13.6006 C   0  0  0  0  0  0  0  0  0  0  0  0
   21.5990  -29.7637  -13.9515 C   0  0  0  0  0  0  0  0  0  0  0  0
   20.5078  -24.8845  -17.4766 C   0  0  0  0  0  0  0  0  0  0  0  0
   19.9697  -23.5023  -16.8178 C   0  0  0  0  0  0  0  0  0  0  0  0
   20.0307  -23.4932  -15.2867 C   0  0  0  0  0  0  0  0  0  0  0  0
   24.5371  -22.2793  -16.6713 C   0  0  0  0  0  0  0  0  0  0  0  0
   18.7817  -24.1097  -14.5536 C   0  0  0  0  0  0  0  0  0  0  0  0
   25.7146  -23.3090  -16.4021 C   0  0  0  0  0  0  0  0  0  0  0  0
   23.2123  -22.6593  -16.0098 C   0  0  0  0  0  0  0  0  0  0  0  0
   21.6396  -26.9206  -15.8239 C   0  0  0  0  0  0  0  0  0  0  0  0
   23.3492  -23.7052  -14.7540 C   0  0  0  0  0  0  0  0  0  0  0  0
   22.9671  -22.3037  -14.5084 C   0  0  0  0  0  0  0  0  0  0  0  0
   22.4050  -23.4916  -13.5568 C   0  0  0  0  0  0  0  0  0  0  0  0
   21.3456  -24.6446  -12.9762 C   0  0  0  0  0  0  0  0  0  0  0  0
  2  1  1  0
  3  1  1  0
  5  2  1  0
  6  1  1  0
  6  2  1  0
  6  3  1  0
  6  5  1  0
  8  2  1  0
  8  5  1  0
  9  3  1  0
  9  4  1  0
  9  7  1  0
 10  4  1  0
 11  7  1  0
 12 11  1  0
 13 12  1  0
 14 10  1  0
 15 13  1  0
 16 15  1  0
 17 13  1  0
 17 15  1  0
 17 16  1  0
 18 14  1  0
 19 18  1  0
 20 19  1  0
 22  7  1  0
 22 20  1  0
 23 21  1  0
 24 21  1  0
 25 12  1  0
 25 14  1  0
 26 24  1  0
 27 24  1  0
 27 26  1  0
 28 26  1  0
 28 27  1  0
 29 11  1  0
 29 28  1  0
M  END
$$$$
