
     RDKit          2D

 38 39  0  0  0  0  0  0  0  0999 V2000
   -4.3470    6.6793    0.0000 C   0  0  0  0  0  0  0  0  0  0  0  0
   -5.0970    5.3802    0.0000 C   0  0  0  0  0  0  0  0  0  0  0  0
   -3.9479    4.4160    0.0000 C   0  0  0  0  0  0  0  0  0  0  0  0
   -2.7988    3.4519    0.0000 C   0  0  0  0  0  0  0  0  0  0  0  0
   -1.6498    2.4877    0.0000 O   0  0  0  0  0  0  0  0  0  0  0  0
   -1.9102    1.0105    0.0000 C   0  0  0  0  0  0  0  0  0  0  0  0
   -3.3874    1.2709    0.0000 N   0  0  0  0  0  0  0  0  0  0  0  0
   -0.4330    0.7500    0.0000 C   0  0  0  0  0  0  0  0  0  0  0  0
    0.8660    0.0000    0.0000 O   0  0  0  0  0  0  0  0  0  0  0  0
   -0.4330   -0.7500    0.0000 C   0  0  0  0  0  0  0  0  0  0  0  0
    0.0800   -2.1595    0.0000 O   0  0  0  0  0  0  0  0  0  0  0  0
   -1.9102   -1.0105    0.0000 O   0  0  0  0  0  0  0  0  0  0  0  0
   -2.4233   -2.4200    0.0000 C   0  0  0  0  0  0  0  0  0  0  0  0
   -2.9363   -3.8296    0.0000 O   0  0  0  0  0  0  0  0  0  0  0  0
   -4.4135   -4.0900    0.0000 C   0  0  0  0  0  0  0  0  0  0  0  0
   -5.8907   -4.3505    0.0000 O   0  0  0  0  0  0  0  0  0  0  0  0
   -6.5065    5.8933    0.0000 C   0  0  0  0  0  0  0  0  0  0  0  0
   -6.2460    4.4160    0.0000 N   0  0  0  0  0  0  0  0  0  0  0  0
   -3.5970    7.9783    0.0000 H   0  0  0  0  0  0  0  0  0  0  0  0
   -5.5449    7.5820    0.0000 H   0  0  0  0  0  0  0  0  0  0  0  0
   -3.2285    6.2046    0.0000 H   0  0  0  0  0  0  0  0  0  0  0  0
   -4.9121    3.2670    0.0000 H   0  0  0  0  0  0  0  0  0  0  0  0
   -3.0593    5.2447    0.0000 H   0  0  0  0  0  0  0  0  0  0  0  0
   -3.4466    2.8478    0.0000 H   0  0  0  0  0  0  0  0  0  0  0  0
   -1.8346    4.6009    0.0000 H   0  0  0  0  0  0  0  0  0  0  0  0
   -2.4594   -0.2228    0.0000 H   0  0  0  0  0  0  0  0  0  0  0  0
   -3.7494    1.9812    0.0000 H   0  0  0  0  0  0  0  0  0  0  0  0
   -4.3516    0.1219    0.0000 H   0  0  0  0  0  0  0  0  0  0  0  0
    0.0800    2.1595    0.0000 H   0  0  0  0  0  0  0  0  0  0  0  0
   -0.7369   -3.4176    0.0000 H   0  0  0  0  0  0  0  0  0  0  0  0
   -3.8328   -1.9070    0.0000 H   0  0  0  0  0  0  0  0  0  0  0  0
   -1.0868   -3.1010    0.0000 H   0  0  0  0  0  0  0  0  0  0  0  0
   -4.1530   -5.5672    0.0000 H   0  0  0  0  0  0  0  0  0  0  0  0
   -4.6740   -2.6128    0.0000 H   0  0  0  0  0  0  0  0  0  0  0  0
   -6.8549   -3.2014    0.0000 H   0  0  0  0  0  0  0  0  0  0  0  0
   -6.4280    7.3912    0.0000 H   0  0  0  0  0  0  0  0  0  0  0  0
   -8.0065    5.8933    0.0000 H   0  0  0  0  0  0  0  0  0  0  0  0
   -6.7590    3.0065    0.0000 H   0  0  0  0  0  0  0  0  0  0  0  0
  2  1  1  1
  2  3  1  0
  3  4  1  0
  4  5  1  0
  5  6  1  0
  6  7  1  0
  6  8  1  0
  8  9  1  0
  9 10  1  0
 10 11  1  6
 10 12  1  0
 12 13  1  0
 13 14  1  0
 14 15  1  0
 15 16  1  0
  2 17  1  0
 17 18  1  0
 18  2  1  0
 10  8  1  0
  1 19  1  0
  1 20  1  0
  1 21  1  0
  3 22  1  0
  3 23  1  0
  4 24  1  0
  4 25  1  0
  6 26  1  1
  7 27  1  0
  7 28  1  0
  8 29  1  1
 11 30  1  0
 13 31  1  0
 13 32  1  0
 15 33  1  0
 15 34  1  0
 16 35  1  0
 17 36  1  0
 17 37  1  0
 18 38  1  0
M  END
$$$$
