
     RDKit          2D

101108  0  0  0  0  0  0  0  0999 V2000
    4.0480   -3.1820    0.0000 C   0  0  0  0  0  0  0  0  0  0  0  0
    2.9873   -2.1213    0.0000 C   0  0  0  0  0  0  0  0  0  0  0  0
    1.9267   -1.0607    0.0000 C   0  0  0  0  0  0  0  0  0  0  0  0
    0.8660    0.0000    0.0000 C   0  0  0  0  0  0  0  0  0  0  0  0
    1.6160    1.2990    0.0000 C   0  0  0  0  0  0  0  0  0  0  0  0
    0.3170    2.0490    0.0000 C   0  0  0  0  0  0  0  0  0  0  0  0
   -0.4330    0.7500    0.0000 C   0  0  0  0  0  0  0  0  0  0  0  0
   -0.4330   -0.7500    0.0000 C   0  0  0  0  0  0  0  0  0  0  0  0
   -0.1668   -2.2000    0.0000 C   0  0  0  0  0  0  0  0  0  0  0  0
    0.8938   -3.2607    0.0000 C   0  0  0  0  0  0  0  0  0  0  0  0
    0.6592   -4.7422    0.0000 C   0  0  0  0  0  0  0  0  0  0  0  0
    2.1407   -4.9768    0.0000 C   0  0  0  0  0  0  0  0  0  0  0  0
    2.3754   -3.4953    0.0000 C   0  0  0  0  0  0  0  0  0  0  0  0
    3.7119   -2.8143    0.0000 C   0  0  0  0  0  0  0  0  0  0  0  0
    4.3929   -1.4778    0.0000 C   0  0  0  0  0  0  0  0  0  0  0  0
    4.1582    0.0037    0.0000 C   0  0  0  0  0  0  0  0  0  0  0  0
    4.8392    1.3402    0.0000 C   0  0  0  0  0  0  0  0  0  0  0  0
    5.5202    2.6767    0.0000 C   0  0  0  0  0  0  0  0  0  0  0  0
    6.2012    4.0133    0.0000 C   0  0  0  0  0  0  0  0  0  0  0  0
    6.8822    5.3498    0.0000 As  0  0  0  0  0  3  0  0  0  0  0  0
    6.0652    6.6078    0.0000 C   0  0  0  0  0  0  0  0  0  0  0  0
    8.3801    5.4283    0.0000 C   0  0  0  0  0  0  0  0  0  0  0  0
    9.8616    5.1936    0.0000 N   0  0  0  0  0  0  0  0  0  0  0  0
   10.5426    6.5301    0.0000 C   0  0  0  0  0  0  0  0  0  0  0  0
   12.0242    6.7648    0.0000 N   0  0  0  0  0  2  0  0  0  0  0  0
   11.1870    7.9384    0.0000 N   0  0  0  0  0  2  0  0  0  0  0  0
   10.6495    9.3388    0.0000 N   0  0  0  0  0  0  0  0  0  0  0  0
   10.8841   10.8203    0.0000 C   0  0  0  0  0  0  0  0  0  0  0  0
    9.4026   11.0550    0.0000 C   0  0  0  0  0  0  0  0  0  0  0  0
    7.9211   11.2896    0.0000 C   0  0  0  0  0  0  0  0  0  0  0  0
    6.4395   11.5243    0.0000 C   0  0  0  0  0  0  0  0  0  0  0  0
    6.2049   10.0428    0.0000 O   0  0  0  0  0  0  0  0  0  0  0  0
    4.9580   11.7590    0.0000 C   0  0  0  0  0  0  0  0  0  0  0  0
    4.4204   13.1593    0.0000 N   0  0  0  0  0  0  0  0  0  0  0  0
    9.1679    9.5735    0.0000 C   0  0  0  0  0  0  0  0  0  0  0  0
    8.2240    8.4077    0.0000 C   0  0  0  0  0  0  0  0  0  0  0  0
    9.4820    7.5908    0.0000 N   0  0  0  0  0  0  0  0  0  0  0  0
    8.1455    6.9098    0.0000 C   0  0  0  0  0  0  0  0  0  0  0  0
    6.6475    6.8313    0.0000 N   0  0  0  0  0  0  0  0  0  0  0  0
    5.8306    8.0893    0.0000 C   0  0  0  0  0  0  0  0  0  0  0  0
    5.9665    5.4948    0.0000 C   0  0  0  0  0  0  0  0  0  0  0  0
    5.1277    4.2513    0.0000 F   0  0  0  0  0  0  0  0  0  0  0  0
    4.5570    6.0078    0.0000 F   0  0  0  0  0  0  0  0  0  0  0  0
    3.0976    1.0644    0.0000 C   0  0  0  0  0  0  0  0  0  0  0  0
    2.8629    2.5459    0.0000 C   0  0  0  0  0  0  0  0  0  0  0  0
    5.1087   -4.2426    0.0000 H   0  0  0  0  0  0  0  0  0  0  0  0
    5.2300   -2.2585    0.0000 H   0  0  0  0  0  0  0  0  0  0  0  0
    3.2755   -4.4678    0.0000 H   0  0  0  0  0  0  0  0  0  0  0  0
    2.2149   -3.4071    0.0000 H   0  0  0  0  0  0  0  0  0  0  0  0
    4.2731   -1.3488    0.0000 H   0  0  0  0  0  0  0  0  0  0  0  0
    2.9873   -0.0000    0.0000 H   0  0  0  0  0  0  0  0  0  0  0  0
    0.8660   -2.1213    0.0000 H   0  0  0  0  0  0  0  0  0  0  0  0
    2.8295    2.1808    0.0000 H   0  0  0  0  0  0  0  0  0  0  0  0
   -0.9821    2.7990    0.0000 H   0  0  0  0  0  0  0  0  0  0  0  0
    1.0670    3.3481    0.0000 H   0  0  0  0  0  0  0  0  0  0  0  0
   -1.8819    1.1382    0.0000 H   0  0  0  0  0  0  0  0  0  0  0  0
   -1.3358   -1.9479    0.0000 H   0  0  0  0  0  0  0  0  0  0  0  0
   -0.8478   -3.5365    0.0000 H   0  0  0  0  0  0  0  0  0  0  0  0
   -1.6659   -2.1477    0.0000 H   0  0  0  0  0  0  0  0  0  0  0  0
    2.2058   -3.9878    0.0000 H   0  0  0  0  0  0  0  0  0  0  0  0
    0.4245   -6.2237    0.0000 H   0  0  0  0  0  0  0  0  0  0  0  0
   -0.8223   -4.5075    0.0000 H   0  0  0  0  0  0  0  0  0  0  0  0
    3.5826   -5.3903    0.0000 H   0  0  0  0  0  0  0  0  0  0  0  0
    1.9061   -6.4584    0.0000 H   0  0  0  0  0  0  0  0  0  0  0  0
    3.4724   -4.5183    0.0000 H   0  0  0  0  0  0  0  0  0  0  0  0
    5.1538   -3.2278    0.0000 H   0  0  0  0  0  0  0  0  0  0  0  0
    4.1254   -4.2562    0.0000 H   0  0  0  0  0  0  0  0  0  0  0  0
    5.8024   -0.9648    0.0000 H   0  0  0  0  0  0  0  0  0  0  0  0
    5.6787   -2.2503    0.0000 H   0  0  0  0  0  0  0  0  0  0  0  0
    5.6573   -0.0486    0.0000 H   0  0  0  0  0  0  0  0  0  0  0  0
    6.1757    0.6593    0.0000 H   0  0  0  0  0  0  0  0  0  0  0  0
    3.5957    2.1791    0.0000 H   0  0  0  0  0  0  0  0  0  0  0  0
    6.8567    1.9958    0.0000 H   0  0  0  0  0  0  0  0  0  0  0  0
    4.2767    3.5156    0.0000 H   0  0  0  0  0  0  0  0  0  0  0  0
    7.5377    3.3323    0.0000 H   0  0  0  0  0  0  0  0  0  0  0  0
    4.7916    4.5262    0.0000 H   0  0  0  0  0  0  0  0  0  0  0  0
    4.8516    7.4894    0.0000 H   0  0  0  0  0  0  0  0  0  0  0  0
    7.0881    7.7049    0.0000 H   0  0  0  0  0  0  0  0  0  0  0  0
    4.7170    5.9503    0.0000 H   0  0  0  0  0  0  0  0  0  0  0  0
    8.3016    3.9303    0.0000 H   0  0  0  0  0  0  0  0  0  0  0  0
   10.5426    3.8571    0.0000 H   0  0  0  0  0  0  0  0  0  0  0  0
   12.9681    5.5991    0.0000 H   0  0  0  0  0  0  0  0  0  0  0  0
   11.1188   12.3019    0.0000 H   0  0  0  0  0  0  0  0  0  0  0  0
   12.3657   10.5857    0.0000 H   0  0  0  0  0  0  0  0  0  0  0  0
    9.6372   12.5365    0.0000 H   0  0  0  0  0  0  0  0  0  0  0  0
    8.3346   12.7315    0.0000 H   0  0  0  0  0  0  0  0  0  0  0  0
    7.9734   12.7887    0.0000 H   0  0  0  0  0  0  0  0  0  0  0  0
    6.6742   13.0058    0.0000 H   0  0  0  0  0  0  0  0  0  0  0  0
    4.7494    9.6799    0.0000 H   0  0  0  0  0  0  0  0  0  0  0  0
    4.0140   10.5932    0.0000 H   0  0  0  0  0  0  0  0  0  0  0  0
    2.9389   13.3940    0.0000 H   0  0  0  0  0  0  0  0  0  0  0  0
    7.8822   10.3461    0.0000 H   0  0  0  0  0  0  0  0  0  0  0  0
    7.3851    9.6513    0.0000 H   0  0  0  0  0  0  0  0  0  0  0  0
    4.8663    9.2383    0.0000 H   0  0  0  0  0  0  0  0  0  0  0  0
    4.4823    7.4318    0.0000 H   0  0  0  0  0  0  0  0  0  0  0  0
    7.0886    8.9063    0.0000 H   0  0  0  0  0  0  0  0  0  0  0  0
    7.0985    4.5106    0.0000 H   0  0  0  0  0  0  0  0  0  0  0  0
    4.2296    2.0485    0.0000 H   0  0  0  0  0  0  0  0  0  0  0  0
    2.6283    4.0275    0.0000 H   0  0  0  0  0  0  0  0  0  0  0  0
    4.3048    2.9594    0.0000 H   0  0  0  0  0  0  0  0  0  0  0  0
    1.3814    2.3113    0.0000 H   0  0  0  0  0  0  0  0  0  0  0  0
  1  2  1  0
  2  3  1  0
  3  4  1  0
  4  5  1  0
  5  6  1  0
  6  7  1  0
  7  8  1  0
  8  9  1  0
  9 10  1  0
 10 11  1  0
 11 12  1  0
 12 13  1  0
 13 14  1  0
 14 15  1  0
 15 16  1  0
 16 17  1  0
 17 18  1  0
 18 19  1  0
 19 20  1  0
 20 21  1  0
 20 22  1  0
 22 23  1  0
 23 24  1  0
 24 25  1  0
 24 26  1  0
 26 27  1  0
 27 28  1  0
 28 29  1  0
 29 30  1  0
 30 31  1  0
 31 32  1  0
 31 33  1  0
 33 34  2  3
 29 35  1  0
 35 36  1  0
 36 37  1  0
 37 38  1  0
 38 39  1  0
 39 40  1  0
 39 41  1  0
 41 42  1  0
 41 43  1  0
 16 44  1  0
 44 45  1  0
  7  4  1  0
 13 10  1  0
 38 22  1  0
  8  4  1  0
 37 24  1  0
 44  5  1  0
 35 27  1  0
 38 36  1  0
  1 46  1  0
  1 47  1  0
  1 48  1  0
  2 49  1  0
  2 50  1  0
  3 51  1  0
  3 52  1  0
  5 53  1  0
  6 54  1  0
  6 55  1  0
  7 56  1  0
  8 57  1  0
  9 58  1  0
  9 59  1  0
 10 60  1  0
 11 61  1  0
 11 62  1  0
 12 63  1  0
 12 64  1  0
 13 65  1  0
 14 66  1  0
 14 67  1  0
 15 68  1  0
 15 69  1  0
 16 70  1  0
 17 71  1  0
 17 72  1  0
 18 73  1  0
 18 74  1  0
 19 75  1  0
 19 76  1  0
 21 77  1  0
 21 78  1  0
 21 79  1  0
 22 80  1  0
 23 81  1  0
 25 82  1  0
 28 83  1  0
 28 84  1  0
 29 85  1  0
 30 86  1  0
 30 87  1  0
 31 88  1  0
 32 89  1  0
 33 90  1  0
 34 91  1  0
 35 92  1  0
 36 93  1  0
 40 94  1  0
 40 95  1  0
 40 96  1  0
 41 97  1  0
 44 98  1  0
 45 99  1  0
 45100  1  0
 45101  1  0
M  RAD  2  25   2  26   2
M  END
$$$$
