
     RDKit          2D

 34 37  0  0  0  0  0  0  0  0999 V2000
   -6.1686    1.9814    0.0000 C   0  0  0  0  0  0  0  0  0  0  0  0
   -4.8695    1.2314    0.0000 C   0  0  0  0  0  0  0  0  0  0  0  0
   -4.8695   -0.2686    0.0000 C   0  0  0  0  0  0  0  0  0  0  0  0
   -5.3826   -1.6782    0.0000 C   0  0  0  0  0  0  0  0  0  0  0  0
   -6.3467   -0.5291    0.0000 C   0  0  0  0  0  0  0  0  0  0  0  0
   -3.5705    1.9814    0.0000 C   0  0  0  0  0  0  0  0  0  0  0  0
   -2.7255    3.2207    0.0000 C   0  0  0  0  0  0  0  0  0  0  0  0
   -1.2297    3.3328    0.0000 C   0  0  0  0  0  0  0  0  0  0  0  0
   -0.2094    2.2332    0.0000 C   0  0  0  0  0  0  0  0  0  0  0  0
   -0.4330    0.7500    0.0000 C   0  0  0  0  0  0  0  0  0  0  0  0
    0.8660    0.0000    0.0000 C   0  0  0  0  0  0  0  0  0  0  0  0
   -0.4330   -0.7500    0.0000 C   0  0  0  0  0  0  0  0  0  0  0  0
   -1.7321    0.0000    0.0000 C   0  0  0  0  0  0  0  0  0  0  0  0
   -3.1284    0.5480    0.0000 C   0  0  0  0  0  0  0  0  0  0  0  0
   -6.1686    3.4814    0.0000 H   0  0  0  0  0  0  0  0  0  0  0  0
   -7.2870    1.5067    0.0000 H   0  0  0  0  0  0  0  0  0  0  0  0
   -4.1072   -0.5017    0.0000 H   0  0  0  0  0  0  0  0  0  0  0  0
   -4.0835   -2.4282    0.0000 H   0  0  0  0  0  0  0  0  0  0  0  0
   -6.3467   -2.8272    0.0000 H   0  0  0  0  0  0  0  0  0  0  0  0
   -7.6458   -1.2791    0.0000 H   0  0  0  0  0  0  0  0  0  0  0  0
   -6.8984    0.5535    0.0000 H   0  0  0  0  0  0  0  0  0  0  0  0
   -4.7172    2.9484    0.0000 H   0  0  0  0  0  0  0  0  0  0  0  0
   -4.0446    3.9349    0.0000 H   0  0  0  0  0  0  0  0  0  0  0  0
   -2.6844    4.7202    0.0000 H   0  0  0  0  0  0  0  0  0  0  0  0
   -1.4938    4.8094    0.0000 H   0  0  0  0  0  0  0  0  0  0  0  0
   -0.0318    4.2356    0.0000 H   0  0  0  0  0  0  0  0  0  0  0  0
    0.7803    3.3604    0.0000 H   0  0  0  0  0  0  0  0  0  0  0  0
    1.2432    1.8595    0.0000 H   0  0  0  0  0  0  0  0  0  0  0  0
    1.9631    1.0230    0.0000 H   0  0  0  0  0  0  0  0  0  0  0  0
    1.8302   -1.1491    0.0000 H   0  0  0  0  0  0  0  0  0  0  0  0
   -0.4330   -2.2500    0.0000 H   0  0  0  0  0  0  0  0  0  0  0  0
   -2.3829   -1.3515    0.0000 H   0  0  0  0  0  0  0  0  0  0  0  0
   -3.1502   -0.2489    0.0000 H   0  0  0  0  0  0  0  0  0  0  0  0
   -4.5526    0.0773    0.0000 H   0  0  0  0  0  0  0  0  0  0  0  0
  1  2  2  3
  2  3  1  0
  3  4  1  0
  4  5  1  0
  2  6  1  0
  6  7  1  0
  7  8  1  0
  8  9  1  0
 10  9  1  6
 10 11  1  0
 11 12  1  0
 12 13  1  0
 13 14  1  0
  5  3  1  0
 14  6  1  0
 12 10  1  0
 13 10  1  0
  1 15  1  0
  1 16  1  0
  3 17  1  0
  4 18  1  0
  4 19  1  0
  5 20  1  0
  5 21  1  0
  6 22  1  1
  7 23  1  0
  7 24  1  0
  8 25  1  0
  8 26  1  0
  9 27  1  0
  9 28  1  0
 11 29  1  0
 11 30  1  0
 12 31  1  6
 13 32  1  1
 14 33  1  0
 14 34  1  0
M  END
$$$$
