
     RDKit          2D

 65 74  0  0  0  0  0  0  0  0999 V2000
    7.8844   -6.3348    0.0000 C   0  0  0  0  0  0  0  0  0  0  0  0
    6.5853   -5.5848    0.0000 C   0  0  0  0  0  0  0  0  0  0  0  0
    5.2863   -4.8348    0.0000 C   0  0  0  0  0  0  0  0  0  0  0  0
    3.9872   -4.0848    0.0000 C   0  0  0  0  0  0  0  0  0  0  0  0
    4.8689   -2.8713    0.0000 C   0  0  0  0  0  0  0  0  0  0  0  0
    3.9872   -1.6578    0.0000 C   0  0  0  0  0  0  0  0  0  0  0  0
    3.3771   -0.2875    0.0000 C   0  0  0  0  0  0  0  0  0  0  0  0
    2.5607   -2.1213    0.0000 C   0  0  0  0  0  0  0  0  0  0  0  0
    2.5607   -3.6213    0.0000 C   0  0  0  0  0  0  0  0  0  0  0  0
    3.0242   -5.0479    0.0000 C   0  0  0  0  0  0  0  0  0  0  0  0
    1.8107   -5.9296    0.0000 C   0  0  0  0  0  0  0  0  0  0  0  0
    0.5971   -5.0479    0.0000 C   0  0  0  0  0  0  0  0  0  0  0  0
    2.4217   -1.4907    0.0000 C   0  0  0  0  0  0  0  0  0  0  0  0
    1.0607   -2.1213    0.0000 C   0  0  0  0  0  0  0  0  0  0  0  0
   -0.0000   -1.0607    0.0000 C   0  0  0  0  0  0  0  0  0  0  0  0
    1.0607    0.0000    0.0000 C   0  0  0  0  0  0  0  0  0  0  0  0
    0.0000    1.0607    0.0000 As  0  0  0  0  0  3  0  0  0  0  0  0
   -1.0607    0.0000    0.0000 C   0  0  0  0  0  0  0  0  0  0  0  0
   -2.1213   -1.0607    0.0000 C   0  0  0  0  0  0  0  0  0  0  0  0
   -1.0607   -2.1213    0.0000 C   0  0  0  0  0  0  0  0  0  0  0  0
   -3.2941   -1.9959    0.0000 C   0  0  0  0  0  0  0  0  0  0  0  0
   -4.7565   -1.6621    0.0000 O   0  0  0  0  0  0  0  0  0  0  0  0
   -5.4073   -0.3107    0.0000 C   0  0  0  0  0  0  0  0  0  0  0  0
   -4.7565    1.0408    0.0000 O   0  0  0  0  0  0  0  0  0  0  0  0
   -3.2941    1.3746    0.0000 C   0  0  0  0  0  0  0  0  0  0  0  0
   -3.9449    2.7260    0.0000 C   0  0  0  0  0  0  0  0  0  0  0  0
   -2.1213    0.4393    0.0000 C   0  0  0  0  0  0  0  0  0  0  0  0
   -3.7895   -0.5801    0.0000 C   0  0  0  0  0  0  0  0  0  0  0  0
   -5.2053   -1.0755    0.0000 O   0  0  0  0  0  0  0  0  0  0  0  0
    1.0607   -3.6213    0.0000 C   0  0  0  0  0  0  0  0  0  0  0  0
    9.1834   -7.0848    0.0000 H   0  0  0  0  0  0  0  0  0  0  0  0
    7.1344   -7.6339    0.0000 H   0  0  0  0  0  0  0  0  0  0  0  0
    8.6344   -5.0358    0.0000 H   0  0  0  0  0  0  0  0  0  0  0  0
    5.8353   -6.8839    0.0000 H   0  0  0  0  0  0  0  0  0  0  0  0
    7.3353   -4.2858    0.0000 H   0  0  0  0  0  0  0  0  0  0  0  0
    6.1890   -3.6369    0.0000 H   0  0  0  0  0  0  0  0  0  0  0  0
    4.7002   -6.2156    0.0000 H   0  0  0  0  0  0  0  0  0  0  0  0
    3.7269   -5.5621    0.0000 H   0  0  0  0  0  0  0  0  0  0  0  0
    6.3577   -2.6885    0.0000 H   0  0  0  0  0  0  0  0  0  0  0  0
    5.2863   -0.9078    0.0000 H   0  0  0  0  0  0  0  0  0  0  0  0
    2.9386    1.1470    0.0000 H   0  0  0  0  0  0  0  0  0  0  0  0
    4.8116    0.1510    0.0000 H   0  0  0  0  0  0  0  0  0  0  0  0
    4.6629    0.4851    0.0000 H   0  0  0  0  0  0  0  0  0  0  0  0
    2.6915   -0.6270    0.0000 H   0  0  0  0  0  0  0  0  0  0  0  0
    4.5014   -4.7875    0.0000 H   0  0  0  0  0  0  0  0  0  0  0  0
    3.6102   -6.4287    0.0000 H   0  0  0  0  0  0  0  0  0  0  0  0
    2.8144   -7.0443    0.0000 H   0  0  0  0  0  0  0  0  0  0  0  0
    0.8070   -7.0443    0.0000 H   0  0  0  0  0  0  0  0  0  0  0  0
   -0.8295   -5.5114    0.0000 H   0  0  0  0  0  0  0  0  0  0  0  0
    2.1647   -0.0129    0.0000 H   0  0  0  0  0  0  0  0  0  0  0  0
    1.9841    1.1820    0.0000 H   0  0  0  0  0  0  0  0  0  0  0  0
    2.4310   -0.6100    0.0000 H   0  0  0  0  0  0  0  0  0  0  0  0
   -1.8331    1.2858    0.0000 H   0  0  0  0  0  0  0  0  0  0  0  0
   -0.0000   -3.1820    0.0000 H   0  0  0  0  0  0  0  0  0  0  0  0
   -1.9841   -3.3034    0.0000 H   0  0  0  0  0  0  0  0  0  0  0  0
   -3.1410   -3.4881    0.0000 H   0  0  0  0  0  0  0  0  0  0  0  0
   -6.5800   -1.2459    0.0000 H   0  0  0  0  0  0  0  0  0  0  0  0
   -6.4573    0.7606    0.0000 H   0  0  0  0  0  0  0  0  0  0  0  0
   -2.1213    2.3098    0.0000 H   0  0  0  0  0  0  0  0  0  0  0  0
   -4.5957    4.0775    0.0000 H   0  0  0  0  0  0  0  0  0  0  0  0
   -2.5934    3.3769    0.0000 H   0  0  0  0  0  0  0  0  0  0  0  0
   -5.2963    2.0752    0.0000 H   0  0  0  0  0  0  0  0  0  0  0  0
   -4.6128    0.6738    0.0000 H   0  0  0  0  0  0  0  0  0  0  0  0
   -6.4531   -0.2429    0.0000 H   0  0  0  0  0  0  0  0  0  0  0  0
    2.5222   -3.9587    0.0000 H   0  0  0  0  0  0  0  0  0  0  0  0
  1  2  1  0
  2  3  1  0
  3  4  1  0
  4  5  1  0
  5  6  1  0
  6  7  1  0
  6  8  1  0
  8  9  1  0
  9 10  1  0
 10 11  1  0
 11 12  1  0
 12 13  1  0
 13 14  1  0
 14 15  1  0
 15 16  1  0
 16 17  1  0
 17 18  1  0
 18 19  1  0
 19 20  1  0
 19 21  1  0
 21 22  1  0
 22 23  1  0
 23 24  1  0
 24 25  1  0
 25 26  1  0
 25 27  1  0
 27 28  1  0
 28 29  1  0
 14 30  1  0
  9  4  1  0
 30 12  1  0
 13  5  1  0
 18 15  1  0
 27 19  1  0
 14  8  1  0
 20 15  1  0
 28 21  1  0
 30  9  1  0
 27 17  1  0
  1 31  1  0
  1 32  1  0
  1 33  1  0
  2 34  1  0
  2 35  1  0
  3 36  1  0
  3 37  1  0
  4 38  1  0
  5 39  1  0
  6 40  1  0
  7 41  1  0
  7 42  1  0
  7 43  1  0
  8 44  1  0
 10 45  1  0
 10 46  1  0
 11 47  1  0
 11 48  1  0
 12 49  1  0
 13 50  1  0
 16 51  1  0
 16 52  1  0
 18 53  1  0
 20 54  1  0
 20 55  1  0
 21 56  1  0
 23 57  1  0
 23 58  1  0
 25 59  1  0
 26 60  1  0
 26 61  1  0
 26 62  1  0
 28 63  1  0
 29 64  1  0
 30 65  1  0
M  END
$$$$
