
     RDKit          2D

 49 53  0  0  0  0  0  0  0  0999 V2000
   -2.8840    3.8971    0.0000 C   0  0  0  0  0  0  0  0  0  0  0  0
   -2.1340    2.5981    0.0000 C   0  0  0  0  0  0  0  0  0  0  0  0
   -2.8840    1.2990    0.0000 O   0  0  0  0  0  0  0  0  0  0  0  0
   -0.6340    2.5981    0.0000 C   0  0  0  0  0  0  0  0  0  0  0  0
    0.1160    3.8971    0.0000 P   0  0  0  0  0  0  0  0  0  0  0  0
    0.1160    1.2990    0.0000 C   0  0  0  0  0  0  0  0  0  0  0  0
    0.8660    0.0000    0.0000 C   0  0  0  0  0  0  0  0  0  0  0  0
    2.1651    0.7500    0.0000 C   0  0  0  0  0  0  0  0  0  0  0  0
    2.1651    2.2500    0.0000 C   0  0  0  0  0  0  0  0  0  0  0  0
    0.8660    3.0000    0.0000 C   0  0  0  0  0  0  0  0  0  0  0  0
   -0.4330    2.2500    0.0000 C   0  0  0  0  0  0  0  0  0  0  0  0
   -0.4330    0.7500    0.0000 C   0  0  0  0  0  0  0  0  0  0  0  0
   -0.4330   -0.7500    0.0000 C   0  0  0  0  0  0  0  0  0  0  0  0
    0.0800   -2.1595    0.0000 C   0  0  0  0  0  0  0  0  0  0  0  0
    1.4395   -2.7935    0.0000 C   0  0  0  0  0  0  0  0  0  0  0  0
    0.8056   -4.1529    0.0000 C   0  0  0  0  0  0  0  0  0  0  0  0
   -0.5539   -3.5190    0.0000 O   0  0  0  0  0  0  0  0  0  0  0  0
   -0.5539   -3.5190    0.0000 C   0  0  0  0  0  0  0  0  0  0  0  0
   -1.1878   -4.8785    0.0000 F   0  0  0  0  0  0  0  0  0  0  0  0
   -1.9134   -2.8851    0.0000 C   0  0  0  0  0  0  0  0  0  0  0  0
   -3.2728   -2.2511    0.0000 C   0  0  0  0  0  0  0  0  0  0  0  0
   -2.8846   -0.8023    0.0000 O   0  0  0  0  0  0  0  0  0  0  0  0
   -3.9453    0.2584    0.0000 F   0  0  0  0  0  0  0  0  0  0  0  0
   -4.7671   -2.1204    0.0000 C   0  0  0  0  0  0  0  0  0  0  0  0
   -4.1332   -3.4799    0.0000 N   0  0  0  0  0  0  0  0  0  0  0  0
   -3.6340    5.1962    0.0000 H   0  0  0  0  0  0  0  0  0  0  0  0
   -4.1830    3.1471    0.0000 H   0  0  0  0  0  0  0  0  0  0  0  0
   -1.5849    4.6471    0.0000 H   0  0  0  0  0  0  0  0  0  0  0  0
   -0.6340    5.1962    0.0000 H   0  0  0  0  0  0  0  0  0  0  0  0
    1.1950    2.3411    0.0000 H   0  0  0  0  0  0  0  0  0  0  0  0
   -1.3655    1.0645    0.0000 H   0  0  0  0  0  0  0  0  0  0  0  0
    3.6423    1.0105    0.0000 H   0  0  0  0  0  0  0  0  0  0  0  0
    2.6781   -0.6595    0.0000 H   0  0  0  0  0  0  0  0  0  0  0  0
    2.6781    3.6595    0.0000 H   0  0  0  0  0  0  0  0  0  0  0  0
    3.6423    1.9895    0.0000 H   0  0  0  0  0  0  0  0  0  0  0  0
    0.2085    4.3482    0.0000 H   0  0  0  0  0  0  0  0  0  0  0  0
    1.8302    4.1491    0.0000 H   0  0  0  0  0  0  0  0  0  0  0  0
   -1.8033    1.6398    0.0000 H   0  0  0  0  0  0  0  0  0  0  0  0
   -0.9460    3.6595    0.0000 H   0  0  0  0  0  0  0  0  0  0  0  0
   -1.9218    0.5672    0.0000 H   0  0  0  0  0  0  0  0  0  0  0  0
   -1.9310   -0.8285    0.0000 H   0  0  0  0  0  0  0  0  0  0  0  0
    2.7989   -3.4274    0.0000 H   0  0  0  0  0  0  0  0  0  0  0  0
    2.0734   -1.4340    0.0000 H   0  0  0  0  0  0  0  0  0  0  0  0
    1.3186   -5.5625    0.0000 H   0  0  0  0  0  0  0  0  0  0  0  0
   -2.5473   -4.2445    0.0000 H   0  0  0  0  0  0  0  0  0  0  0  0
   -1.4499   -1.4585    0.0000 H   0  0  0  0  0  0  0  0  0  0  0  0
   -4.8979   -0.6261    0.0000 H   0  0  0  0  0  0  0  0  0  0  0  0
   -6.2160   -2.5086    0.0000 H   0  0  0  0  0  0  0  0  0  0  0  0
   -4.2639   -4.9742    0.0000 H   0  0  0  0  0  0  0  0  0  0  0  0
  1  2  1  0
  2  3  2  0
  2  4  1  0
  4  5  2  3
  4  6  1  0
  6  7  1  0
  7  8  1  0
  8  9  1  0
  9 10  1  0
 10 11  1  0
 11 12  1  0
 12 13  1  0
 13 14  1  0
 14 15  1  0
 15 16  1  0
 16 17  1  0
 16 18  1  0
 18 19  1  0
 18 20  1  0
 20 21  1  0
 21 22  1  0
 22 23  1  0
 21 24  1  0
 24 25  1  0
 12  7  1  0
 17 14  1  0
 25 21  1  0
 13  7  1  0
 18 14  1  0
  1 26  1  0
  1 27  1  0
  1 28  1  0
  5 29  1  0
  6 30  1  0
  6 31  1  0
  8 32  1  0
  8 33  1  0
  9 34  1  0
  9 35  1  0
 10 36  1  0
 10 37  1  0
 11 38  1  0
 11 39  1  0
 12 40  1  0
 13 41  1  0
 15 42  1  0
 15 43  1  0
 16 44  1  0
 20 45  1  0
 20 46  1  0
 24 47  1  0
 24 48  1  0
 25 49  1  0
M  END
$$$$
