
     RDKit          2D

 69 71  0  0  0  0  0  0  0  0999 V2000
    6.6511    6.8944    0.0000 C   0  0  0  0  0  0  0  0  0  0  0  0
    5.6869    5.7453    0.0000 C   0  0  0  0  0  0  0  0  0  0  0  0
    4.7228    4.5963    0.0000 C   0  0  0  0  0  0  0  0  0  0  0  0
    3.7586    3.4472    0.0000 C   0  0  0  0  0  0  0  0  0  0  0  0
    4.9076    2.4830    0.0000 N   0  0  0  0  0  0  0  0  0  0  0  0
    2.7944    2.2981    0.0000 C   0  0  0  0  0  0  0  0  0  0  0  0
    1.6453    3.2623    0.0000 O   0  0  0  0  0  0  0  0  0  0  0  0
    1.8302    1.1491    0.0000 C   0  0  0  0  0  0  0  0  0  0  0  0
    0.8660    0.0000    0.0000 C   0  0  0  0  0  0  0  0  0  0  0  0
   -0.4330    0.7500    0.0000 C   0  0  0  0  0  0  0  0  0  0  0  0
   -0.4330   -0.7500    0.0000 C   0  0  0  0  0  0  0  0  0  0  0  0
   -1.7321    0.0000    0.0000 C   0  0  0  0  0  0  0  0  0  0  0  0
   -2.3061    1.3858    0.0000 C   0  0  0  0  0  0  0  0  0  0  0  0
   -2.1103    2.8730    0.0000 C   0  0  0  0  0  0  0  0  0  0  0  0
   -3.6919    1.9598    0.0000 C   0  0  0  0  0  0  0  0  0  0  0  0
   -5.0777    1.3858    0.0000 C   0  0  0  0  0  0  0  0  0  0  0  0
   -6.5649    1.5816    0.0000 C   0  0  0  0  0  0  0  0  0  0  0  0
   -8.0520    1.7774    0.0000 C   0  0  0  0  0  0  0  0  0  0  0  0
   -5.6517   -0.0000    0.0000 O   0  0  0  0  0  0  0  0  0  0  0  0
   -5.0777   -1.3858    0.0000 C   0  0  0  0  0  0  0  0  0  0  0  0
   -5.2735   -2.8730    0.0000 C   0  0  0  0  0  0  0  0  0  0  0  0
   -5.4693   -4.3602    0.0000 C   0  0  0  0  0  0  0  0  0  0  0  0
   -5.6651   -5.8473    0.0000 F   0  0  0  0  0  0  0  0  0  0  0  0
   -3.6919   -1.9598    0.0000 C   0  0  0  0  0  0  0  0  0  0  0  0
   -2.7788   -3.1499    0.0000 C   0  0  0  0  0  0  0  0  0  0  0  0
   -2.3061   -1.3858    0.0000 C   0  0  0  0  0  0  0  0  0  0  0  0
   -0.8189   -1.5816    0.0000 C   0  0  0  0  0  0  0  0  0  0  0  0
    7.6153    8.0435    0.0000 H   0  0  0  0  0  0  0  0  0  0  0  0
    7.8002    5.9302    0.0000 H   0  0  0  0  0  0  0  0  0  0  0  0
    5.5020    7.8586    0.0000 H   0  0  0  0  0  0  0  0  0  0  0  0
    6.8360    4.7812    0.0000 H   0  0  0  0  0  0  0  0  0  0  0  0
    4.5379    6.7095    0.0000 H   0  0  0  0  0  0  0  0  0  0  0  0
    3.5737    5.5604    0.0000 H   0  0  0  0  0  0  0  0  0  0  0  0
    5.9808    3.7793    0.0000 H   0  0  0  0  0  0  0  0  0  0  0  0
    2.7356    4.5443    0.0000 H   0  0  0  0  0  0  0  0  0  0  0  0
    6.3692    2.8204    0.0000 H   0  0  0  0  0  0  0  0  0  0  0  0
    4.8292    0.9851    0.0000 H   0  0  0  0  0  0  0  0  0  0  0  0
    3.8174    1.2011    0.0000 H   0  0  0  0  0  0  0  0  0  0  0  0
    1.7238    4.7603    0.0000 H   0  0  0  0  0  0  0  0  0  0  0  0
    0.8995    1.9301    0.0000 H   0  0  0  0  0  0  0  0  0  0  0  0
    2.9793    0.1849    0.0000 H   0  0  0  0  0  0  0  0  0  0  0  0
    1.8302   -1.1491    0.0000 H   0  0  0  0  0  0  0  0  0  0  0  0
   -0.1949    1.7049    0.0000 H   0  0  0  0  0  0  0  0  0  0  0  0
   -0.0701   -2.2054    0.0000 H   0  0  0  0  0  0  0  0  0  0  0  0
   -1.1298    1.6901    0.0000 H   0  0  0  0  0  0  0  0  0  0  0  0
   -1.9145    4.3602    0.0000 H   0  0  0  0  0  0  0  0  0  0  0  0
   -0.6103    2.8599    0.0000 H   0  0  0  0  0  0  0  0  0  0  0  0
   -2.8821    3.0726    0.0000 H   0  0  0  0  0  0  0  0  0  0  0  0
   -4.3770    3.1231    0.0000 H   0  0  0  0  0  0  0  0  0  0  0  0
   -3.4404    2.8091    0.0000 H   0  0  0  0  0  0  0  0  0  0  0  0
   -5.4533    2.8380    0.0000 H   0  0  0  0  0  0  0  0  0  0  0  0
   -6.3691    3.0688    0.0000 H   0  0  0  0  0  0  0  0  0  0  0  0
   -6.7607    0.0944    0.0000 H   0  0  0  0  0  0  0  0  0  0  0  0
   -9.5392    1.9732    0.0000 H   0  0  0  0  0  0  0  0  0  0  0  0
   -8.2478    0.2902    0.0000 H   0  0  0  0  0  0  0  0  0  0  0  0
   -7.8563    3.2646    0.0000 H   0  0  0  0  0  0  0  0  0  0  0  0
   -6.5649   -1.5816    0.0000 H   0  0  0  0  0  0  0  0  0  0  0  0
   -6.7607   -2.6772    0.0000 H   0  0  0  0  0  0  0  0  0  0  0  0
   -3.8213   -3.2486    0.0000 H   0  0  0  0  0  0  0  0  0  0  0  0
   -6.9565   -4.1644    0.0000 H   0  0  0  0  0  0  0  0  0  0  0  0
   -4.0171   -4.7358    0.0000 H   0  0  0  0  0  0  0  0  0  0  0  0
   -4.1178   -3.3981    0.0000 H   0  0  0  0  0  0  0  0  0  0  0  0
   -1.8656   -4.3399    0.0000 H   0  0  0  0  0  0  0  0  0  0  0  0
   -3.8486   -4.2013    0.0000 H   0  0  0  0  0  0  0  0  0  0  0  0
   -1.4863   -2.3886    0.0000 H   0  0  0  0  0  0  0  0  0  0  0  0
   -1.5902   -2.7040    0.0000 H   0  0  0  0  0  0  0  0  0  0  0  0
    0.6683   -1.7774    0.0000 H   0  0  0  0  0  0  0  0  0  0  0  0
   -1.0147   -3.0688    0.0000 H   0  0  0  0  0  0  0  0  0  0  0  0
   -0.2691   -0.1860    0.0000 H   0  0  0  0  0  0  0  0  0  0  0  0
  1  2  1  0
  2  3  1  0
  3  4  1  0
  4  5  1  0
  4  6  1  0
  6  7  1  0
  6  8  1  0
  8  9  1  0
  9 10  1  0
 10 11  1  0
 11 12  1  0
 12 13  1  0
 13 14  1  0
 13 15  1  0
 15 16  1  0
 16 17  1  0
 17 18  1  0
 16 19  1  0
 19 20  1  0
 20 21  1  0
 21 22  1  0
 22 23  1  0
 20 24  1  0
 24 25  1  0
 24 26  1  0
 26 27  1  0
 11  9  1  0
 26 12  1  0
 12 10  1  0
  1 28  1  0
  1 29  1  0
  1 30  1  0
  2 31  1  0
  2 32  1  0
  3 33  1  0
  3 34  1  0
  4 35  1  0
  5 36  1  0
  5 37  1  0
  6 38  1  0
  7 39  1  0
  8 40  1  0
  8 41  1  0
  9 42  1  0
 10 43  1  0
 11 44  1  0
 13 45  1  0
 14 46  1  0
 14 47  1  0
 14 48  1  0
 15 49  1  0
 15 50  1  0
 16 51  1  0
 17 52  1  0
 17 53  1  0
 18 54  1  0
 18 55  1  0
 18 56  1  0
 20 57  1  0
 21 58  1  0
 21 59  1  0
 22 60  1  0
 22 61  1  0
 24 62  1  0
 25 63  1  0
 25 64  1  0
 25 65  1  0
 26 66  1  0
 27 67  1  0
 27 68  1  0
 27 69  1  0
M  END
$$$$
