
     RDKit          2D

 50 53  0  0  0  0  0  0  0  0999 V2000
    3.5737    5.5604    0.0000 C   0  0  0  0  0  0  0  0  0  0  0  0
    4.7228    4.5963    0.0000 C   0  0  0  0  0  0  0  0  0  0  0  0
    5.8718    3.6321    0.0000 C   0  0  0  0  0  0  0  0  0  0  0  0
    3.7586    3.4472    0.0000 C   0  0  0  0  0  0  0  0  0  0  0  0
    2.7944    2.2981    0.0000 C   0  0  0  0  0  0  0  0  0  0  0  0
    1.8302    1.1491    0.0000 C   0  0  0  0  0  0  0  0  0  0  0  0
    0.8660    0.0000    0.0000 C   0  0  0  0  0  0  0  0  0  0  0  0
   -0.4330    0.7500    0.0000 C   0  0  0  0  0  0  0  0  0  0  0  0
   -1.9102    1.0105    0.0000 O   0  0  0  0  0  0  0  0  0  0  0  0
    0.0800    2.1595    0.0000 O   0  0  0  0  0  0  0  0  0  0  0  0
   -0.4330   -0.7500    0.0000 C   0  0  0  0  0  0  0  0  0  0  0  0
   -1.7321   -1.5000    0.0000 C   0  0  0  0  0  0  0  0  0  0  0  0
   -1.7321   -3.0000    0.0000 C   0  0  0  0  0  0  0  0  0  0  0  0
   -0.4330   -2.2500    0.0000 C   0  0  0  0  0  0  0  0  0  0  0  0
    0.8660   -3.0000    0.0000 C   0  0  0  0  0  0  0  0  0  0  0  0
    2.1651   -3.7500    0.0000 C   0  0  0  0  0  0  0  0  0  0  0  0
    3.4641   -4.5000    0.0000 C   0  0  0  0  0  0  0  0  0  0  0  0
    4.7631   -5.2500    0.0000 C   0  0  0  0  0  0  0  0  0  0  0  0
    5.7273   -6.3991    0.0000 C   0  0  0  0  0  0  0  0  0  0  0  0
    4.2501   -6.6595    0.0000 C   0  0  0  0  0  0  0  0  0  0  0  0
    2.4246    6.5246    0.0000 H   0  0  0  0  0  0  0  0  0  0  0  0
    4.5379    6.7095    0.0000 H   0  0  0  0  0  0  0  0  0  0  0  0
    2.9259    4.9564    0.0000 H   0  0  0  0  0  0  0  0  0  0  0  0
    5.6869    5.7453    0.0000 H   0  0  0  0  0  0  0  0  0  0  0  0
    7.0209    2.6679    0.0000 H   0  0  0  0  0  0  0  0  0  0  0  0
    6.8360    4.7812    0.0000 H   0  0  0  0  0  0  0  0  0  0  0  0
    5.3894    2.8892    0.0000 H   0  0  0  0  0  0  0  0  0  0  0  0
    4.3626    2.7994    0.0000 H   0  0  0  0  0  0  0  0  0  0  0  0
    3.0157    3.9296    0.0000 H   0  0  0  0  0  0  0  0  0  0  0  0
    1.6453    3.2623    0.0000 H   0  0  0  0  0  0  0  0  0  0  0  0
    3.9435    1.3340    0.0000 H   0  0  0  0  0  0  0  0  0  0  0  0
    1.0368    2.2413    0.0000 H   0  0  0  0  0  0  0  0  0  0  0  0
    2.9793    0.1849    0.0000 H   0  0  0  0  0  0  0  0  0  0  0  0
    1.8534   -0.9207    0.0000 H   0  0  0  0  0  0  0  0  0  0  0  0
   -2.4233    2.4200    0.0000 H   0  0  0  0  0  0  0  0  0  0  0  0
   -0.8842    3.3086    0.0000 H   0  0  0  0  0  0  0  0  0  0  0  0
   -3.0311   -0.7500    0.0000 H   0  0  0  0  0  0  0  0  0  0  0  0
   -3.2093   -3.2605    0.0000 H   0  0  0  0  0  0  0  0  0  0  0  0
   -1.2190   -4.4095    0.0000 H   0  0  0  0  0  0  0  0  0  0  0  0
    0.1160   -4.2990    0.0000 H   0  0  0  0  0  0  0  0  0  0  0  0
    1.6785   -1.9219    0.0000 H   0  0  0  0  0  0  0  0  0  0  0  0
    1.4151   -5.0490    0.0000 H   0  0  0  0  0  0  0  0  0  0  0  0
    2.9151   -2.4510    0.0000 H   0  0  0  0  0  0  0  0  0  0  0  0
    4.2141   -3.2010    0.0000 H   0  0  0  0  0  0  0  0  0  0  0  0
    2.6516   -5.5781    0.0000 H   0  0  0  0  0  0  0  0  0  0  0  0
    5.7273   -4.1009    0.0000 H   0  0  0  0  0  0  0  0  0  0  0  0
    7.0264   -5.6491    0.0000 H   0  0  0  0  0  0  0  0  0  0  0  0
    6.2404   -7.8086    0.0000 H   0  0  0  0  0  0  0  0  0  0  0  0
    4.2501   -8.1595    0.0000 H   0  0  0  0  0  0  0  0  0  0  0  0
    2.9020   -6.5889    0.0000 H   0  0  0  0  0  0  0  0  0  0  0  0
  1  2  1  0
  2  3  1  0
  2  4  1  0
  4  5  1  0
  5  6  1  0
  6  7  1  0
  7  8  1  0
  8  9  1  0
  8 10  1  0
  8 11  1  0
 11 12  1  0
 12 13  1  0
 13 14  1  0
 14 15  1  0
 15 16  1  0
 16 17  1  0
 17 18  1  0
 18 19  1  0
 19 20  1  0
 11  7  1  0
 14 12  1  0
 20 18  1  0
 14 11  1  0
  1 21  1  0
  1 22  1  0
  1 23  1  0
  2 24  1  0
  3 25  1  0
  3 26  1  0
  3 27  1  0
  4 28  1  0
  4 29  1  0
  5 30  1  0
  5 31  1  0
  6 32  1  0
  6 33  1  0
  7 34  1  0
  9 35  1  0
 10 36  1  0
 12 37  1  0
 13 38  1  0
 13 39  1  0
 15 40  1  0
 15 41  1  0
 16 42  1  0
 16 43  1  0
 17 44  1  0
 17 45  1  0
 18 46  1  0
 19 47  1  0
 19 48  1  0
 20 49  1  0
 20 50  1  0
M  END
$$$$
