
     RDKit          3D

 13 17  0  0  0  0  0  0  0  0999 V2000
   26.0486  -26.9902  -10.7799 O   0  0  0  0  0  0  0  0  0  0  0  0
   26.4180  -26.1648   -9.7016 C   0  0  0  0  0  0  0  0  0  0  0  0
   28.4332  -26.6747  -10.2152 C   0  0  0  0  0  0  0  0  0  0  0  0
   27.7120  -25.3867   -9.8806 C   0  0  0  0  0  0  0  0  0  0  0  0
   27.6362  -24.4099  -11.0634 C   0  0  0  0  0  0  0  0  0  0  0  0
   27.3002  -22.9704  -10.6809 C   0  0  0  0  0  0  0  0  0  0  0  0
   26.4692  -22.2358  -11.6973 C   0  0  0  0  0  0  0  0  0  0  0  0
   26.9228  -21.8755  -12.9054 C   0  0  0  0  0  0  0  0  0  0  0  0
   28.2950  -22.2224  -13.4160 C   0  0  0  0  0  0  0  0  0  0  0  0
   27.1388  -27.4435  -10.0176 C   0  0  0  0  0  0  0  0  0  0  0  0
   28.7289  -23.3429  -11.0743 C   0  0  0  0  0  0  0  0  0  0  0  0
   29.2184  -23.0003  -12.4863 C   0  0  0  0  0  0  0  0  0  0  0  0
   29.4350  -21.5070  -12.7013 C   0  0  0  0  0  0  0  0  0  0  0  0
  2  1  1  0
  4  2  1  0
  4  3  1  0
  5  4  1  0
  6  5  1  0
  7  6  1  0
  8  7  2  0
  9  8  1  0
 10  1  1  0
 10  2  1  0
 10  3  1  0
 11  5  1  0
 11  6  1  0
 12  9  1  0
 12 11  1  0
 13  9  1  0
 13 12  1  0
M  END
$$$$
