
     RDKit          2D

 39 39  0  0  0  0  0  0  0  0999 V2000
   11.2065   -1.8233    0.0000 C   0  0  0  0  0  0  0  0  0  0  0  0
    9.7293   -1.5628    0.0000 C   0  0  0  0  0  0  0  0  0  0  0  0
    8.2521   -1.3024    0.0000 C   0  0  0  0  0  0  0  0  0  0  0  0
    6.7749   -1.0419    0.0000 C   0  0  0  0  0  0  0  0  0  0  0  0
    5.2977   -0.7814    0.0000 O   0  0  0  0  0  0  0  0  0  0  0  0
    4.7846    0.6281    0.0000 N   0  0  0  0  0  0  0  0  0  0  0  0
    3.3074    0.8886    0.0000 C   0  0  0  0  0  0  0  0  0  0  0  0
    1.8302    1.1491    0.0000 N   0  0  0  0  0  0  0  0  0  0  0  0
    1.3172    2.5586    0.0000 O   0  0  0  0  0  0  0  0  0  0  0  0
    2.2814    3.7077    0.0000 O   0  0  0  0  0  0  0  0  0  0  0  0
    1.7683    5.1172    0.0000 C   0  0  0  0  0  0  0  0  0  0  0  0
    0.8660    0.0000    0.0000 C   0  0  0  0  0  0  0  0  0  0  0  0
    1.8534   -0.9207    0.0000 Br  0  0  0  0  0  0  0  0  0  0  0  0
   -0.4330    0.7500    0.0000 N   0  0  0  0  0  0  0  0  0  0  0  0
   -0.4330   -0.7500    0.0000 C   0  0  0  0  0  0  0  0  0  0  0  0
    0.0800   -2.1595    0.0000 C   0  0  0  0  0  0  0  0  0  0  0  0
    0.5930   -3.5691    0.0000 C   0  0  0  0  0  0  0  0  0  0  0  0
    1.1061   -4.9786    0.0000 Br  0  0  0  0  0  0  0  0  0  0  0  0
   12.6837   -2.0838    0.0000 H   0  0  0  0  0  0  0  0  0  0  0  0
   11.4670   -0.3461    0.0000 H   0  0  0  0  0  0  0  0  0  0  0  0
   10.9460   -3.3005    0.0000 H   0  0  0  0  0  0  0  0  0  0  0  0
    9.9898   -0.0856    0.0000 H   0  0  0  0  0  0  0  0  0  0  0  0
    9.4688   -3.0400    0.0000 H   0  0  0  0  0  0  0  0  0  0  0  0
    7.9916   -2.7796    0.0000 H   0  0  0  0  0  0  0  0  0  0  0  0
    8.5126    0.1749    0.0000 H   0  0  0  0  0  0  0  0  0  0  0  0
    7.0353    0.4353    0.0000 H   0  0  0  0  0  0  0  0  0  0  0  0
    6.5144   -2.5191    0.0000 H   0  0  0  0  0  0  0  0  0  0  0  0
    5.7488    1.7772    0.0000 H   0  0  0  0  0  0  0  0  0  0  0  0
    3.0469   -0.5886    0.0000 H   0  0  0  0  0  0  0  0  0  0  0  0
    3.5679    2.3658    0.0000 H   0  0  0  0  0  0  0  0  0  0  0  0
    1.2553    6.5268    0.0000 H   0  0  0  0  0  0  0  0  0  0  0  0
    3.1779    5.6302    0.0000 H   0  0  0  0  0  0  0  0  0  0  0  0
    0.3588    4.6042    0.0000 H   0  0  0  0  0  0  0  0  0  0  0  0
   -1.1830    2.0490    0.0000 H   0  0  0  0  0  0  0  0  0  0  0  0
   -1.9102   -1.0105    0.0000 H   0  0  0  0  0  0  0  0  0  0  0  0
    1.3954   -1.8559    0.0000 H   0  0  0  0  0  0  0  0  0  0  0  0
   -1.3295   -2.6726    0.0000 H   0  0  0  0  0  0  0  0  0  0  0  0
    2.0026   -3.0560    0.0000 H   0  0  0  0  0  0  0  0  0  0  0  0
   -0.8165   -4.0821    0.0000 H   0  0  0  0  0  0  0  0  0  0  0  0
  1  2  1  0
  2  3  1  0
  3  4  1  0
  4  5  1  0
  5  6  1  0
  6  7  1  0
  7  8  1  0
  8  9  1  0
  9 10  1  0
 10 11  1  0
  8 12  1  0
 12 13  1  0
 12 14  1  0
 14 15  1  0
 15 16  1  0
 16 17  1  0
 17 18  1  0
 15 12  1  0
  1 19  1  0
  1 20  1  0
  1 21  1  0
  2 22  1  0
  2 23  1  0
  3 24  1  0
  3 25  1  0
  4 26  1  0
  4 27  1  0
  6 28  1  0
  7 29  1  0
  7 30  1  0
 11 31  1  0
 11 32  1  0
 11 33  1  0
 14 34  1  0
 15 35  1  0
 16 36  1  0
 16 37  1  0
 17 38  1  0
 17 39  1  0
M  END
$$$$
