
     RDKit          3D

 15 16  0  0  0  0  0  0  0  0999 V2000
   17.5294  -28.5881  -18.0173 C   0  0  0  0  0  0  0  0  0  0  0  0
   19.0354  -28.5992  -17.7255 C   0  0  0  0  0  0  0  0  0  0  0  0
   16.9596  -27.7396  -19.1690 C   0  0  0  0  0  0  0  0  0  0  0  0
   18.3836  -29.7745  -18.4513 C   0  0  0  0  0  0  0  0  0  0  0  0
   15.5888  -28.2853  -19.5991 C   0  0  0  0  0  0  0  0  0  0  0  0
   14.8580  -27.4983  -20.7111 C   0  0  0  0  0  0  0  0  0  0  0  0
   15.5260  -27.6210  -22.0782 C   0  0  0  0  0  0  0  0  0  0  0  0
   20.0881  -25.9168  -17.8780 As  0  0  0  0  0  3  0  0  0  0  0  0
   15.4982  -26.2766  -21.3673 C   0  0  0  0  0  0  0  0  0  0  0  0
   21.4061  -28.3854  -18.5097 C   0  0  0  0  0  0  0  0  0  0  0  0
   20.0117  -27.7687  -18.5816 C   0  0  0  0  0  0  0  0  0  0  0  0
   21.3763  -25.2223  -20.2267 O   0  0  0  0  0  0  0  0  0  0  0  0
   14.4909  -25.2616  -21.9204 C   0  0  0  0  0  0  0  0  0  0  0  0
   20.1283  -25.0195  -19.6343 C   0  0  0  0  0  0  0  0  0  0  0  0
   15.1692  -24.3237  -22.9109 C   0  0  0  0  0  0  0  0  0  0  0  0
  2  1  1  0
  3  1  1  0
  4  1  1  0
  4  2  1  0
  5  3  1  0
  6  5  1  0
  7  6  1  0
  9  6  1  0
  9  7  1  0
 11  2  1  0
 11  8  1  0
 11 10  1  0
 13  9  1  0
 14  8  1  0
 14 12  1  0
 15 13  1  0
M  END
$$$$
