
     RDKit          2D

105109  0  0  0  0  0  0  0  0999 V2000
    7.0791   -9.4926    0.0000 C   0  0  0  0  0  0  0  0  0  0  0  0
    5.7801   -8.7426    0.0000 C   0  0  0  0  0  0  0  0  0  0  0  0
    4.4810   -7.9926    0.0000 C   0  0  0  0  0  0  0  0  0  0  0  0
    3.1820   -7.2426    0.0000 N   0  0  0  0  0  2  0  0  0  0  0  0
    3.1820   -5.7426    0.0000 C   0  0  0  0  0  0  0  0  0  0  0  0
    1.6820   -5.7426    0.0000 C   0  0  0  0  0  0  0  0  0  0  0  0
    0.1820   -5.7426    0.0000 C   0  0  0  0  0  0  0  0  0  0  0  0
   -1.3180   -5.7426    0.0000 C   0  0  0  0  0  0  0  0  0  0  0  0
   -2.8180   -5.7426    0.0000 O   0  0  0  0  0  0  0  0  0  0  0  0
   -3.5680   -7.0417    0.0000 O   0  0  0  0  0  0  0  0  0  0  0  0
    4.6820   -5.7426    0.0000 N   0  0  0  0  0  2  0  0  0  0  0  0
    4.6820   -4.2426    0.0000 C   0  0  0  0  0  0  0  0  0  0  0  0
    6.1820   -4.2426    0.0000 N   0  0  0  0  0  0  0  0  0  0  0  0
    6.9320   -2.9436    0.0000 F   0  0  0  0  0  0  0  0  0  0  0  0
    3.1820   -4.2426    0.0000 N   0  0  0  0  0  0  0  0  0  0  0  0
    2.1213   -3.1820    0.0000 C   0  0  0  0  0  0  0  0  0  0  0  0
    1.0607   -2.1213    0.0000 C   0  0  0  0  0  0  0  0  0  0  0  0
   -0.0000   -1.0607    0.0000 C   0  0  0  0  0  0  0  0  0  0  0  0
    1.0607    0.0000    0.0000 C   0  0  0  0  0  0  0  0  0  0  0  0
    0.0000    1.0607    0.0000 C   0  0  0  0  0  0  0  0  0  0  0  0
    1.0607    2.1213    0.0000 C   0  0  0  0  0  0  0  0  0  0  0  0
    2.1213    3.1820    0.0000 C   0  0  0  0  0  0  0  0  0  0  0  0
    3.1820    4.2426    0.0000 C   0  0  0  0  0  0  0  0  0  0  0  0
    4.2426    5.3033    0.0000 C   0  0  0  0  0  0  0  0  0  0  0  0
    5.3033    6.3640    0.0000 C   0  0  0  0  0  0  0  0  0  0  0  0
    6.3640    7.4246    0.0000 C   0  0  0  0  0  0  0  0  0  0  0  0
    2.1213    5.3033    0.0000 C   0  0  0  0  0  0  0  0  0  0  0  0
    1.0607    6.3640    0.0000 C   0  0  0  0  0  0  0  0  0  0  0  0
    2.1213    7.4246    0.0000 C   0  0  0  0  0  0  0  0  0  0  0  0
    3.1820    8.4853    0.0000 C   0  0  0  0  0  0  0  0  0  0  0  0
    1.0607    8.4853    0.0000 C   0  0  0  0  0  0  0  0  0  0  0  0
   -0.3882    8.8735    0.0000 C   0  0  0  0  0  0  0  0  0  0  0  0
   -0.2575   10.3678    0.0000 C   0  0  0  0  0  0  0  0  0  0  0  0
   -0.0000    7.4246    0.0000 C   0  0  0  0  0  0  0  0  0  0  0  0
   -1.0607    2.1213    0.0000 C   0  0  0  0  0  0  0  0  0  0  0  0
   -2.1213    1.0607    0.0000 C   0  0  0  0  0  0  0  0  0  0  0  0
   -3.1820    0.0000    0.0000 C   0  0  0  0  0  0  0  0  0  0  0  0
   -4.2426    1.0607    0.0000 F   0  0  0  0  0  0  0  0  0  0  0  0
   -4.2426   -1.0607    0.0000 C   0  0  0  0  0  0  0  0  0  0  0  0
   -5.3033   -2.1213    0.0000 C   0  0  0  0  0  0  0  0  0  0  0  0
   -6.3640   -3.1820    0.0000 C   0  0  0  0  0  0  0  0  0  0  0  0
   -7.8128   -2.7938    0.0000 C   0  0  0  0  0  0  0  0  0  0  0  0
   -8.8735   -3.8544    0.0000 C   0  0  0  0  0  0  0  0  0  0  0  0
   -9.9342   -4.9151    0.0000 C   0  0  0  0  0  0  0  0  0  0  0  0
   -1.0607    0.0000    0.0000 C   0  0  0  0  0  0  0  0  0  0  0  0
    8.3781  -10.2426    0.0000 H   0  0  0  0  0  0  0  0  0  0  0  0
    5.2310   -6.6936    0.0000 H   0  0  0  0  0  0  0  0  0  0  0  0
    3.7310   -9.2917    0.0000 H   0  0  0  0  0  0  0  0  0  0  0  0
    1.6820   -7.2426    0.0000 H   0  0  0  0  0  0  0  0  0  0  0  0
    1.5487   -4.6573    0.0000 H   0  0  0  0  0  0  0  0  0  0  0  0
    0.1820   -7.2426    0.0000 H   0  0  0  0  0  0  0  0  0  0  0  0
   -0.0009   -4.2538    0.0000 H   0  0  0  0  0  0  0  0  0  0  0  0
   -1.3180   -7.2426    0.0000 H   0  0  0  0  0  0  0  0  0  0  0  0
   -1.3180   -4.2426    0.0000 H   0  0  0  0  0  0  0  0  0  0  0  0
   -5.0680   -7.0417    0.0000 H   0  0  0  0  0  0  0  0  0  0  0  0
    4.6820   -2.7426    0.0000 H   0  0  0  0  0  0  0  0  0  0  0  0
    6.9320   -5.5417    0.0000 H   0  0  0  0  0  0  0  0  0  0  0  0
    1.1840   -3.7451    0.0000 H   0  0  0  0  0  0  0  0  0  0  0  0
    3.1820   -2.1213    0.0000 H   0  0  0  0  0  0  0  0  0  0  0  0
    1.7586   -1.5760    0.0000 H   0  0  0  0  0  0  0  0  0  0  0  0
    0.0000   -3.1820    0.0000 H   0  0  0  0  0  0  0  0  0  0  0  0
   -1.0607   -2.1213    0.0000 H   0  0  0  0  0  0  0  0  0  0  0  0
    1.7586    0.5453    0.0000 H   0  0  0  0  0  0  0  0  0  0  0  0
    1.7586   -0.5453    0.0000 H   0  0  0  0  0  0  0  0  0  0  0  0
    0.1372    3.3034    0.0000 H   0  0  0  0  0  0  0  0  0  0  0  0
    1.7586    1.5760    0.0000 H   0  0  0  0  0  0  0  0  0  0  0  0
    3.1820    2.1213    0.0000 H   0  0  0  0  0  0  0  0  0  0  0  0
    0.9393    4.1054    0.0000 H   0  0  0  0  0  0  0  0  0  0  0  0
    4.2426    3.1820    0.0000 H   0  0  0  0  0  0  0  0  0  0  0  0
    5.3033    4.2426    0.0000 H   0  0  0  0  0  0  0  0  0  0  0  0
    3.4946    6.2608    0.0000 H   0  0  0  0  0  0  0  0  0  0  0  0
    6.3640    5.3033    0.0000 H   0  0  0  0  0  0  0  0  0  0  0  0
    4.1213    7.2874    0.0000 H   0  0  0  0  0  0  0  0  0  0  0  0
    7.4246    8.4853    0.0000 H   0  0  0  0  0  0  0  0  0  0  0  0
    7.4246    6.3640    0.0000 H   0  0  0  0  0  0  0  0  0  0  0  0
    5.3033    8.4853    0.0000 H   0  0  0  0  0  0  0  0  0  0  0  0
    2.8693    6.2608    0.0000 H   0  0  0  0  0  0  0  0  0  0  0  0
    0.9393    4.3798    0.0000 H   0  0  0  0  0  0  0  0  0  0  0  0
    0.0000    5.3033    0.0000 H   0  0  0  0  0  0  0  0  0  0  0  0
    0.8355    8.1971    0.0000 H   0  0  0  0  0  0  0  0  0  0  0  0
    4.2426    9.5459    0.0000 H   0  0  0  0  0  0  0  0  0  0  0  0
    2.2585    9.6673    0.0000 H   0  0  0  0  0  0  0  0  0  0  0  0
    4.1054    7.3032    0.0000 H   0  0  0  0  0  0  0  0  0  0  0  0
    1.8107    9.7843    0.0000 H   0  0  0  0  0  0  0  0  0  0  0  0
   -1.8825    8.7428    0.0000 H   0  0  0  0  0  0  0  0  0  0  0  0
   -0.1268   11.8621    0.0000 H   0  0  0  0  0  0  0  0  0  0  0  0
   -1.7518   10.4985    0.0000 H   0  0  0  0  0  0  0  0  0  0  0  0
    1.2416   10.4202    0.0000 H   0  0  0  0  0  0  0  0  0  0  0  0
   -1.2990    6.6746    0.0000 H   0  0  0  0  0  0  0  0  0  0  0  0
   -2.1213    3.1820    0.0000 H   0  0  0  0  0  0  0  0  0  0  0  0
   -0.1372    3.3034    0.0000 H   0  0  0  0  0  0  0  0  0  0  0  0
   -3.1820    2.1213    0.0000 H   0  0  0  0  0  0  0  0  0  0  0  0
   -2.2585   -1.1820    0.0000 H   0  0  0  0  0  0  0  0  0  0  0  0
   -5.3033    0.0000    0.0000 H   0  0  0  0  0  0  0  0  0  0  0  0
   -3.1820   -2.1213    0.0000 H   0  0  0  0  0  0  0  0  0  0  0  0
   -6.3640   -1.0607    0.0000 H   0  0  0  0  0  0  0  0  0  0  0  0
   -4.2426   -3.1820    0.0000 H   0  0  0  0  0  0  0  0  0  0  0  0
   -5.9757   -4.6309    0.0000 H   0  0  0  0  0  0  0  0  0  0  0  0
   -8.2011   -1.3449    0.0000 H   0  0  0  0  0  0  0  0  0  0  0  0
   -9.9342   -2.7938    0.0000 H   0  0  0  0  0  0  0  0  0  0  0  0
   -7.8128   -4.9151    0.0000 H   0  0  0  0  0  0  0  0  0  0  0  0
  -10.9948   -5.9757    0.0000 H   0  0  0  0  0  0  0  0  0  0  0  0
   -8.8735   -5.9757    0.0000 H   0  0  0  0  0  0  0  0  0  0  0  0
  -10.9948   -3.8544    0.0000 H   0  0  0  0  0  0  0  0  0  0  0  0
   -1.9841   -1.1820    0.0000 H   0  0  0  0  0  0  0  0  0  0  0  0
  1  2  3  0
  2  3  1  0
  3  4  1  0
  5  4  1  1
  5  6  1  0
  6  7  1  0
  7  8  1  0
  8  9  1  0
  9 10  1  0
  5 11  1  0
 11 12  1  0
 12 13  1  0
 13 14  1  0
 12 15  1  0
 15 16  1  0
 16 17  1  0
 17 18  1  0
 18 19  1  0
 19 20  1  0
 20 21  1  1
 21 22  1  0
 22 23  1  0
 23 24  1  0
 24 25  1  0
 25 26  1  0
 23 27  1  0
 27 28  1  0
 28 29  1  0
 29 30  1  0
 29 31  1  0
 31 32  1  0
 32 33  1  0
 32 34  1  0
 20 35  1  0
 35 36  1  0
 36 37  1  0
 37 38  1  0
 37 39  1  0
 39 40  1  0
 40 41  1  0
 41 42  2  3
 42 43  1  0
 43 44  1  0
 36 45  1  0
 15  5  1  0
 45 18  1  0
 45 20  1  0
 34 28  1  0
 34 31  1  0
  1 46  1  0
  3 47  1  0
  3 48  1  0
  6 49  1  0
  6 50  1  0
  7 51  1  0
  7 52  1  0
  8 53  1  0
  8 54  1  0
 10 55  1  0
 12 56  1  6
 13 57  1  0
 16 58  1  0
 16 59  1  0
 17 60  1  0
 17 61  1  0
 18 62  1  1
 19 63  1  0
 19 64  1  0
 21 65  1  0
 21 66  1  0
 22 67  1  0
 22 68  1  0
 23 69  1  6
 24 70  1  0
 24 71  1  0
 25 72  1  0
 25 73  1  0
 26 74  1  0
 26 75  1  0
 26 76  1  0
 27 77  1  0
 27 78  1  0
 28 79  1  1
 29 80  1  6
 30 81  1  0
 30 82  1  0
 30 83  1  0
 31 84  1  6
 32 85  1  1
 33 86  1  0
 33 87  1  0
 33 88  1  0
 34 89  1  6
 35 90  1  0
 35 91  1  0
 36 92  1  6
 37 93  1  6
 39 94  1  0
 39 95  1  0
 40 96  1  0
 40 97  1  0
 41 98  1  0
 42 99  1  0
 43100  1  0
 43101  1  0
 44102  1  0
 44103  1  0
 44104  1  0
 45105  1  1
M  RAD  2   4   2  11   2
M  END
$$$$
