
     RDKit          2D

 43 47  0  0  0  0  0  0  0  0999 V2000
    1.0670    3.3481    0.0000 C   0  0  0  0  0  0  0  0  0  0  0  0
    0.3170    2.0490    0.0000 C   0  0  0  0  0  0  0  0  0  0  0  0
   -0.9821    2.7990    0.0000 C   0  0  0  0  0  0  0  0  0  0  0  0
   -2.2811    3.5490    0.0000 C   0  0  0  0  0  0  0  0  0  0  0  0
   -3.5801    4.2990    0.0000 C   0  0  0  0  0  0  0  0  0  0  0  0
   -4.8792    5.0490    0.0000 C   0  0  0  0  0  0  0  0  0  0  0  0
   -5.8433    6.1981    0.0000 C   0  0  0  0  0  0  0  0  0  0  0  0
   -4.3661    6.4586    0.0000 C   0  0  0  0  0  0  0  0  0  0  0  0
    1.6160    1.2990    0.0000 C   0  0  0  0  0  0  0  0  0  0  0  0
    0.8660    0.0000    0.0000 C   0  0  0  0  0  0  0  0  0  0  0  0
   -0.4330    0.7500    0.0000 C   0  0  0  0  0  0  0  0  0  0  0  0
   -0.4330   -0.7500    0.0000 C   0  0  0  0  0  0  0  0  0  0  0  0
    0.1771   -2.1203    0.0000 C   0  0  0  0  0  0  0  0  0  0  0  0
   -0.9376   -3.1240    0.0000 C   0  0  0  0  0  0  0  0  0  0  0  0
   -2.2367   -3.8740    0.0000 C   0  0  0  0  0  0  0  0  0  0  0  0
   -2.2367   -2.3740    0.0000 C   0  0  0  0  0  0  0  0  0  0  0  0
   -1.9248   -0.9068    0.0000 C   0  0  0  0  0  0  0  0  0  0  0  0
    1.8170    4.6471    0.0000 H   0  0  0  0  0  0  0  0  0  0  0  0
    0.3596    3.8811    0.0000 H   0  0  0  0  0  0  0  0  0  0  0  0
    1.8823    3.0020    0.0000 H   0  0  0  0  0  0  0  0  0  0  0  0
   -0.6360    3.6144    0.0000 H   0  0  0  0  0  0  0  0  0  0  0  0
   -1.5743    2.0131    0.0000 H   0  0  0  0  0  0  0  0  0  0  0  0
   -1.5311    4.8481    0.0000 H   0  0  0  0  0  0  0  0  0  0  0  0
   -3.0311    2.2500    0.0000 H   0  0  0  0  0  0  0  0  0  0  0  0
   -4.3301    3.0000    0.0000 H   0  0  0  0  0  0  0  0  0  0  0  0
   -2.7676    5.3772    0.0000 H   0  0  0  0  0  0  0  0  0  0  0  0
   -5.8433    3.9000    0.0000 H   0  0  0  0  0  0  0  0  0  0  0  0
   -7.1424    5.4481    0.0000 H   0  0  0  0  0  0  0  0  0  0  0  0
   -6.3564    7.6076    0.0000 H   0  0  0  0  0  0  0  0  0  0  0  0
   -4.3661    7.9586    0.0000 H   0  0  0  0  0  0  0  0  0  0  0  0
   -3.0180    6.3880    0.0000 H   0  0  0  0  0  0  0  0  0  0  0  0
    2.9151    0.5490    0.0000 H   0  0  0  0  0  0  0  0  0  0  0  0
    2.1491    2.0064    0.0000 H   0  0  0  0  0  0  0  0  0  0  0  0
    2.0481   -0.9235    0.0000 H   0  0  0  0  0  0  0  0  0  0  0  0
   -1.3836    1.0047    0.0000 H   0  0  0  0  0  0  0  0  0  0  0  0
    1.5579   -1.5343    0.0000 H   0  0  0  0  0  0  0  0  0  0  0  0
    1.0588   -3.3338    0.0000 H   0  0  0  0  0  0  0  0  0  0  0  0
   -0.0559   -4.3375    0.0000 H   0  0  0  0  0  0  0  0  0  0  0  0
   -1.7236   -5.2836    0.0000 H   0  0  0  0  0  0  0  0  0  0  0  0
   -3.7139   -4.1345    0.0000 H   0  0  0  0  0  0  0  0  0  0  0  0
   -3.7284   -2.2172    0.0000 H   0  0  0  0  0  0  0  0  0  0  0  0
   -3.4166   -0.7500    0.0000 H   0  0  0  0  0  0  0  0  0  0  0  0
   -2.1076    0.5820    0.0000 H   0  0  0  0  0  0  0  0  0  0  0  0
  2  1  1  6
  2  3  1  0
  3  4  1  0
  4  5  1  0
  5  6  1  0
  6  7  1  0
  7  8  1  0
  2  9  1  0
  9 10  1  0
 10 11  1  0
 11 12  1  0
 12 13  1  6
 13 14  1  0
 14 15  1  0
 15 16  1  0
 16 17  1  0
 11  2  1  0
 17 12  1  0
  8  6  1  0
 12 10  1  0
 16 14  1  0
  1 18  1  0
  1 19  1  0
  1 20  1  0
  3 21  1  0
  3 22  1  0
  4 23  1  0
  4 24  1  0
  5 25  1  0
  5 26  1  0
  6 27  1  0
  7 28  1  0
  7 29  1  0
  8 30  1  0
  8 31  1  0
  9 32  1  0
  9 33  1  0
 10 34  1  6
 11 35  1  6
 13 36  1  0
 13 37  1  0
 14 38  1  1
 15 39  1  0
 15 40  1  0
 16 41  1  1
 17 42  1  0
 17 43  1  0
M  END
$$$$
