
     RDKit          2D

 19 19  0  0  0  0  0  0  0  0999 V2000
   -3.0593   -1.9747    0.0000 C   0  0  0  0  0  0  0  0  0  0  0  0
   -1.9102   -1.0105    0.0000 N   0  0  0  0  0  0  0  0  0  0  0  0
   -1.3972    0.3991    0.0000 O   0  0  0  0  0  0  0  0  0  0  0  0
   -0.4330   -0.7500    0.0000 S   0  0  0  0  0  4  0  0  0  0  0  0
    0.0800   -2.1595    0.0000 C   0  0  0  0  0  0  0  0  0  0  0  0
    0.5930   -3.5691    0.0000 C   0  0  0  0  0  0  0  0  0  0  0  0
    2.0026   -3.0560    0.0000 O   0  0  0  0  0  0  0  0  0  0  0  0
    1.1061   -4.9786    0.0000 C   0  0  0  0  0  0  0  0  0  0  0  0
    2.5833   -5.2391    0.0000 O   0  0  0  0  0  0  0  0  0  0  0  0
    0.1419   -6.1277    0.0000 O   0  0  0  0  0  0  0  0  0  0  0  0
   -4.2084   -2.9388    0.0000 H   0  0  0  0  0  0  0  0  0  0  0  0
   -2.2424   -3.2327    0.0000 H   0  0  0  0  0  0  0  0  0  0  0  0
   -4.0235   -0.8256    0.0000 H   0  0  0  0  0  0  0  0  0  0  0  0
    0.8660    0.0000    0.0000 H   0  0  0  0  0  0  0  0  0  0  0  0
    1.4896   -1.6465    0.0000 H   0  0  0  0  0  0  0  0  0  0  0  0
   -1.2565   -2.8406    0.0000 H   0  0  0  0  0  0  0  0  0  0  0  0
   -0.8165   -4.0821    0.0000 H   0  0  0  0  0  0  0  0  0  0  0  0
    3.1517   -4.0202    0.0000 H   0  0  0  0  0  0  0  0  0  0  0  0
    0.6549   -7.5372    0.0000 H   0  0  0  0  0  0  0  0  0  0  0  0
  1  2  1  0
  2  3  1  0
  3  4  1  0
  4  5  1  0
  5  6  1  0
  6  7  1  0
  6  8  1  0
  8  9  2  0
  8 10  1  0
  4  2  1  0
  1 11  1  0
  1 12  1  0
  1 13  1  0
  4 14  1  0
  5 15  1  0
  5 16  1  0
  6 17  1  0
  7 18  1  0
 10 19  1  0
M  END
$$$$
