
     RDKit          2D

108113  0  0  0  0  0  0  0  0999 V2000
   -1.4422    4.6771    0.0000 C   0  0  0  0  0  0  0  0  0  0  0  0
   -1.4422    3.1771    0.0000 C   0  0  0  0  0  0  0  0  0  0  0  0
   -2.7413    2.4271    0.0000 C   0  0  0  0  0  0  0  0  0  0  0  0
   -4.1679    1.9635    0.0000 C   0  0  0  0  0  0  0  0  0  0  0  0
   -4.1679    0.4635    0.0000 C   0  0  0  0  0  0  0  0  0  0  0  0
   -5.3814   -0.4182    0.0000 C   0  0  0  0  0  0  0  0  0  0  0  0
   -6.5949   -1.2998    0.0000 C   0  0  0  0  0  0  0  0  0  0  0  0
   -7.8084   -2.1815    0.0000 C   0  0  0  0  0  0  0  0  0  0  0  0
   -9.0220   -3.0632    0.0000 C   0  0  0  0  0  0  0  0  0  0  0  0
   -9.9036   -1.8497    0.0000 N   0  0  0  0  0  0  0  0  0  0  0  0
  -11.3954   -2.0065    0.0000 Sb  0  0  0  0  0  3  0  0  0  0  0  0
  -12.2771   -0.7929    0.0000 C   0  0  0  0  0  0  0  0  0  0  0  0
  -13.1588    0.4206    0.0000 C   0  0  0  0  0  0  0  0  0  0  0  0
  -14.3723   -0.4611    0.0000 C   0  0  0  0  0  0  0  0  0  0  0  0
  -15.5858   -1.3428    0.0000 C   0  0  0  0  0  0  0  0  0  0  0  0
  -16.7994   -2.2244    0.0000 O   0  0  0  0  0  0  0  0  0  0  0  0
  -14.0405    1.6341    0.0000 C   0  0  0  0  0  0  0  0  0  0  0  0
  -15.4439    2.1635    0.0000 C   0  0  0  0  0  0  0  0  0  0  0  0
  -16.1788    3.4712    0.0000 C   0  0  0  0  0  0  0  0  0  0  0  0
  -15.9011    4.9453    0.0000 C   0  0  0  0  0  0  0  0  0  0  0  0
  -14.7409    5.8960    0.0000 C   0  0  0  0  0  0  0  0  0  0  0  0
  -13.2410    5.8786    0.0000 C   0  0  0  0  0  0  0  0  0  0  0  0
  -12.1032    4.9011    0.0000 C   0  0  0  0  0  0  0  0  0  0  0  0
  -10.6155    4.7096    0.0000 C   0  0  0  0  0  0  0  0  0  0  0  0
  -11.8600    3.4209    0.0000 C   0  0  0  0  0  0  0  0  0  0  0  0
  -10.8434    2.3180    0.0000 C   0  0  0  0  0  0  0  0  0  0  0  0
  -12.6250    2.1307    0.0000 C   0  0  0  0  0  0  0  0  0  0  0  0
   -8.1403   -4.2767    0.0000 C   0  0  0  0  0  0  0  0  0  0  0  0
   -6.9268   -3.3950    0.0000 N   0  0  0  0  0  0  0  0  0  0  0  0
   -9.3538   -5.1584    0.0000 N   0  0  0  0  0  0  0  0  0  0  0  0
   -9.1970   -6.6502    0.0000 C   0  0  0  0  0  0  0  0  0  0  0  0
  -10.1410   -7.8159    0.0000 C   0  0  0  0  0  0  0  0  0  0  0  0
   -8.9753   -8.7599    0.0000 C   0  0  0  0  0  0  0  0  0  0  0  0
   -8.0313   -7.5942    0.0000 C   0  0  0  0  0  0  0  0  0  0  0  0
   -6.8656   -8.5381    0.0000 C   0  0  0  0  0  0  0  0  0  0  0  0
   -5.6999   -9.4821    0.0000 C   0  0  0  0  0  0  0  0  0  0  0  0
   -4.5341  -10.4261    0.0000 C   0  0  0  0  0  0  0  0  0  0  0  0
   -3.3684  -11.3701    0.0000 C   0  0  0  0  0  0  0  0  0  0  0  0
   -2.7413    0.0000    0.0000 C   0  0  0  0  0  0  0  0  0  0  0  0
   -1.8596    1.2135    0.0000 C   0  0  0  0  0  0  0  0  0  0  0  0
   -0.4330    0.7500    0.0000 C   0  0  0  0  0  0  0  0  0  0  0  0
    0.8660    0.0000    0.0000 O   0  0  0  0  0  0  0  0  0  0  0  0
   -0.4330   -0.7500    0.0000 C   0  0  0  0  0  0  0  0  0  0  0  0
   -1.8596   -1.2135    0.0000 C   0  0  0  0  0  0  0  0  0  0  0  0
   -0.1432    5.4271    0.0000 H   0  0  0  0  0  0  0  0  0  0  0  0
   -2.7413    5.4271    0.0000 H   0  0  0  0  0  0  0  0  0  0  0  0
   -0.0003    2.7637    0.0000 H   0  0  0  0  0  0  0  0  0  0  0  0
   -3.3514    3.7974    0.0000 H   0  0  0  0  0  0  0  0  0  0  0  0
   -5.6596    1.8067    0.0000 H   0  0  0  0  0  0  0  0  0  0  0  0
   -4.4797    3.4307    0.0000 H   0  0  0  0  0  0  0  0  0  0  0  0
   -6.2631    0.7954    0.0000 H   0  0  0  0  0  0  0  0  0  0  0  0
   -4.4997   -1.6317    0.0000 H   0  0  0  0  0  0  0  0  0  0  0  0
   -5.7132   -2.5134    0.0000 H   0  0  0  0  0  0  0  0  0  0  0  0
   -7.4766   -0.0863    0.0000 H   0  0  0  0  0  0  0  0  0  0  0  0
   -8.5356   -0.8696    0.0000 H   0  0  0  0  0  0  0  0  0  0  0  0
   -7.1977   -2.6939    0.0000 H   0  0  0  0  0  0  0  0  0  0  0  0
  -10.2355   -3.9449    0.0000 H   0  0  0  0  0  0  0  0  0  0  0  0
   -9.4651   -0.4152    0.0000 H   0  0  0  0  0  0  0  0  0  0  0  0
  -12.0055   -3.3768    0.0000 H   0  0  0  0  0  0  0  0  0  0  0  0
  -13.3741   -1.8160    0.0000 H   0  0  0  0  0  0  0  0  0  0  0  0
  -11.0636    0.0888    0.0000 H   0  0  0  0  0  0  0  0  0  0  0  0
  -11.7099    0.8087    0.0000 H   0  0  0  0  0  0  0  0  0  0  0  0
  -13.6451   -1.7730    0.0000 H   0  0  0  0  0  0  0  0  0  0  0  0
  -15.5214    0.5030    0.0000 H   0  0  0  0  0  0  0  0  0  0  0  0
  -16.4675   -0.1292    0.0000 H   0  0  0  0  0  0  0  0  0  0  0  0
  -14.7042   -2.5563    0.0000 H   0  0  0  0  0  0  0  0  0  0  0  0
  -16.6426   -3.7162    0.0000 H   0  0  0  0  0  0  0  0  0  0  0  0
  -14.9501    0.4414    0.0000 H   0  0  0  0  0  0  0  0  0  0  0  0
  -15.9075    0.7370    0.0000 H   0  0  0  0  0  0  0  0  0  0  0  0
  -16.8564    1.6587    0.0000 H   0  0  0  0  0  0  0  0  0  0  0  0
  -17.3445    2.5272    0.0000 H   0  0  0  0  0  0  0  0  0  0  0  0
  -17.5853    3.9924    0.0000 H   0  0  0  0  0  0  0  0  0  0  0  0
  -17.4009    4.9715    0.0000 H   0  0  0  0  0  0  0  0  0  0  0  0
  -16.4792    6.3294    0.0000 H   0  0  0  0  0  0  0  0  0  0  0  0
  -15.2375    7.3114    0.0000 H   0  0  0  0  0  0  0  0  0  0  0  0
  -12.7116    7.2820    0.0000 H   0  0  0  0  0  0  0  0  0  0  0  0
  -11.4931    6.2714    0.0000 H   0  0  0  0  0  0  0  0  0  0  0  0
  -10.4241    6.1974    0.0000 H   0  0  0  0  0  0  0  0  0  0  0  0
  -10.6242    3.2096    0.0000 H   0  0  0  0  0  0  0  0  0  0  0  0
   -9.1278    4.5182    0.0000 H   0  0  0  0  0  0  0  0  0  0  0  0
  -10.3657    3.5516    0.0000 H   0  0  0  0  0  0  0  0  0  0  0  0
   -9.7404    3.3346    0.0000 H   0  0  0  0  0  0  0  0  0  0  0  0
  -11.5087    0.9736    0.0000 H   0  0  0  0  0  0  0  0  0  0  0  0
   -9.8268    1.2150    0.0000 H   0  0  0  0  0  0  0  0  0  0  0  0
  -11.3007    1.4264    0.0000 H   0  0  0  0  0  0  0  0  0  0  0  0
  -12.1948    0.6938    0.0000 H   0  0  0  0  0  0  0  0  0  0  0  0
   -7.2586   -5.4902    0.0000 H   0  0  0  0  0  0  0  0  0  0  0  0
   -5.5564   -4.0051    0.0000 H   0  0  0  0  0  0  0  0  0  0  0  0
   -6.3647   -2.0043    0.0000 H   0  0  0  0  0  0  0  0  0  0  0  0
  -11.0850   -8.9816    0.0000 H   0  0  0  0  0  0  0  0  0  0  0  0
  -11.3067   -6.8719    0.0000 H   0  0  0  0  0  0  0  0  0  0  0  0
   -7.9333   -9.8389    0.0000 H   0  0  0  0  0  0  0  0  0  0  0  0
   -9.9193   -9.9256    0.0000 H   0  0  0  0  0  0  0  0  0  0  0  0
   -7.0873   -6.4284    0.0000 H   0  0  0  0  0  0  0  0  0  0  0  0
   -5.9216   -7.3724    0.0000 H   0  0  0  0  0  0  0  0  0  0  0  0
   -7.6604   -9.8102    0.0000 H   0  0  0  0  0  0  0  0  0  0  0  0
   -6.6438  -10.6478    0.0000 H   0  0  0  0  0  0  0  0  0  0  0  0
   -4.7559   -8.3164    0.0000 H   0  0  0  0  0  0  0  0  0  0  0  0
   -3.5902   -9.2604    0.0000 H   0  0  0  0  0  0  0  0  0  0  0  0
   -5.4781  -11.5918    0.0000 H   0  0  0  0  0  0  0  0  0  0  0  0
   -4.3124  -12.5358    0.0000 H   0  0  0  0  0  0  0  0  0  0  0  0
   -2.4244  -10.2044    0.0000 H   0  0  0  0  0  0  0  0  0  0  0  0
   -2.2027  -12.3141    0.0000 H   0  0  0  0  0  0  0  0  0  0  0  0
   -3.6230   -1.2135    0.0000 H   0  0  0  0  0  0  0  0  0  0  0  0
   -0.8366    2.3105    0.0000 H   0  0  0  0  0  0  0  0  0  0  0  0
    0.3396    2.0357    0.0000 H   0  0  0  0  0  0  0  0  0  0  0  0
    0.1771   -2.1203    0.0000 H   0  0  0  0  0  0  0  0  0  0  0  0
   -2.3231   -2.6401    0.0000 H   0  0  0  0  0  0  0  0  0  0  0  0
  1  2  2  0
  2  3  1  0
  3  4  1  0
  4  5  1  0
  5  6  1  6
  6  7  1  0
  7  8  1  0
  8  9  1  0
  9 10  1  0
 10 11  1  0
 11 12  1  0
 12 13  1  0
 13 14  1  0
 14 15  1  0
 15 16  1  0
 13 17  1  0
 17 18  1  0
 18 19  1  0
 19 20  1  0
 20 21  1  0
 21 22  2  0
 22 23  1  0
 23 24  1  0
 23 25  1  0
 25 26  1  0
 25 27  1  0
  9 28  1  0
 28 29  1  0
 28 30  1  0
 30 31  2  3
 31 32  1  0
 32 33  1  0
 33 34  1  0
 34 35  1  0
 35 36  1  0
 36 37  1  0
 37 38  1  0
  5 39  1  0
 39 40  1  0
 40 41  1  0
 41 42  1  0
 42 43  1  0
 43 44  1  0
 40  3  1  0
 43 41  1  0
 44  5  1  0
 27 17  1  0
 34 31  1  0
 44 39  1  0
  1 45  1  0
  1 46  1  0
  2 47  1  0
  3 48  1  1
  4 49  1  0
  4 50  1  0
  6 51  1  0
  6 52  1  0
  7 53  1  0
  7 54  1  0
  8 55  1  0
  8 56  1  0
  9 57  1  1
 10 58  1  0
 11 59  1  0
 12 60  1  0
 12 61  1  0
 13 62  1  1
 14 63  1  0
 14 64  1  0
 15 65  1  0
 15 66  1  0
 16 67  1  0
 17 68  1  6
 18 69  1  0
 18 70  1  0
 19 71  1  0
 19 72  1  0
 20 73  1  0
 20 74  1  0
 21 75  1  0
 22 76  1  0
 23 77  1  1
 24 78  1  0
 24 79  1  0
 24 80  1  0
 25 81  1  1
 26 82  1  0
 26 83  1  0
 26 84  1  0
 27 85  1  0
 27 86  1  0
 28 87  1  1
 29 88  1  0
 29 89  1  0
 32 90  1  0
 32 91  1  0
 33 92  1  0
 33 93  1  0
 34 94  1  6
 35 95  1  0
 35 96  1  0
 36 97  1  0
 36 98  1  0
 37 99  1  0
 37100  1  0
 38101  1  0
 38102  1  0
 38103  1  0
 39104  1  6
 40105  1  6
 41106  1  6
 43107  1  6
 44108  1  6
M  END
$$$$
