
     RDKit          2D

103110  0  0  0  0  0  0  0  0999 V2000
    8.6614   -4.0364    0.0000 C   0  0  0  0  0  0  0  0  0  0  0  0
    7.3019   -3.4024    0.0000 C   0  0  0  0  0  0  0  0  0  0  0  0
    5.9424   -2.7685    0.0000 C   0  0  0  0  0  0  0  0  0  0  0  0
    4.5830   -2.1346    0.0000 O   0  0  0  0  0  0  0  0  0  0  0  0
    4.4522   -0.6403    0.0000 N   0  0  0  0  0  0  0  0  0  0  0  0
    5.4164    0.5088    0.0000 C   0  0  0  0  0  0  0  0  0  0  0  0
    6.5655   -0.4554    0.0000 C   0  0  0  0  0  0  0  0  0  0  0  0
    7.7146   -1.4196    0.0000 C   0  0  0  0  0  0  0  0  0  0  0  0
    7.5297    0.6937    0.0000 C   0  0  0  0  0  0  0  0  0  0  0  0
    8.4938    1.8427    0.0000 C   0  0  0  0  0  0  0  0  0  0  0  0
    8.6787   -0.2705    0.0000 C   0  0  0  0  0  0  0  0  0  0  0  0
    9.8278   -1.2347    0.0000 C   0  0  0  0  0  0  0  0  0  0  0  0
   10.9769   -2.1989    0.0000 C   0  0  0  0  0  0  0  0  0  0  0  0
   11.9004   -3.3809    0.0000 C   0  0  0  0  0  0  0  0  0  0  0  0
   13.3099   -2.8679    0.0000 C   0  0  0  0  0  0  0  0  0  0  0  0
   13.2575   -1.3688    0.0000 C   0  0  0  0  0  0  0  0  0  0  0  0
   11.8157   -0.9553    0.0000 C   0  0  0  0  0  0  0  0  0  0  0  0
   12.3776    0.4355    0.0000 O   0  0  0  0  0  0  0  0  0  0  0  0
    9.6429    0.8786    0.0000 C   0  0  0  0  0  0  0  0  0  0  0  0
   10.6071    2.0276    0.0000 C   0  0  0  0  0  0  0  0  0  0  0  0
    8.4938    1.8427    0.0000 C   0  0  0  0  0  0  0  0  0  0  0  0
    7.7438    3.1418    0.0000 C   0  0  0  0  0  0  0  0  0  0  0  0
    9.2438    3.1418    0.0000 C   0  0  0  0  0  0  0  0  0  0  0  0
    4.2674    1.4730    0.0000 C   0  0  0  0  0  0  0  0  0  0  0  0
    3.3032    0.3239    0.0000 C   0  0  0  0  0  0  0  0  0  0  0  0
    2.3390   -0.8252    0.0000 O   0  0  0  0  0  0  0  0  0  0  0  0
    2.1541    1.2881    0.0000 C   0  0  0  0  0  0  0  0  0  0  0  0
    1.0050    0.3239    0.0000 O   0  0  0  0  0  0  0  0  0  0  0  0
    2.9041    2.5871    0.0000 C   0  0  0  0  0  0  0  0  0  0  0  0
    4.4039    2.5610    0.0000 Br  0  0  0  0  0  0  0  0  0  0  0  0
    2.9041    4.0871    0.0000 C   0  0  0  0  0  0  0  0  0  0  0  0
    1.4041    4.0871    0.0000 O   0  0  0  0  0  0  0  0  0  0  0  0
    1.4041    2.5871    0.0000 C   0  0  0  0  0  0  0  0  0  0  0  0
   -0.0448    2.1989    0.0000 O   0  0  0  0  0  0  0  0  0  0  0  0
   -0.4330    0.7500    0.0000 C   0  0  0  0  0  0  0  0  0  0  0  0
    0.8660    0.0000    0.0000 C   0  0  0  0  0  0  0  0  0  0  0  0
   -0.4330   -0.7500    0.0000 C   0  0  0  0  0  0  0  0  0  0  0  0
   -1.9330   -0.7500    0.0000 C   0  0  0  0  0  0  0  0  0  0  0  0
   -3.4330   -0.7500    0.0000 C   0  0  0  0  0  0  0  0  0  0  0  0
   -1.9330    0.7500    0.0000 C   0  0  0  0  0  0  0  0  0  0  0  0
   -3.3819    1.1382    0.0000 C   0  0  0  0  0  0  0  0  0  0  0  0
   -2.3212    2.1989    0.0000 C   0  0  0  0  0  0  0  0  0  0  0  0
   -3.1816    3.4276    0.0000 C   0  0  0  0  0  0  0  0  0  0  0  0
   -0.9618    2.8328    0.0000 O   0  0  0  0  0  0  0  0  0  0  0  0
   -0.8310    4.3271    0.0000 C   0  0  0  0  0  0  0  0  0  0  0  0
    9.9334   -4.8313    0.0000 H   0  0  0  0  0  0  0  0  0  0  0  0
    8.0274   -5.3958    0.0000 H   0  0  0  0  0  0  0  0  0  0  0  0
    9.4563   -2.7643    0.0000 H   0  0  0  0  0  0  0  0  0  0  0  0
    8.0968   -2.1304    0.0000 H   0  0  0  0  0  0  0  0  0  0  0  0
    6.6680   -4.7619    0.0000 H   0  0  0  0  0  0  0  0  0  0  0  0
    6.5764   -1.4090    0.0000 H   0  0  0  0  0  0  0  0  0  0  0  0
    5.3085   -4.1280    0.0000 H   0  0  0  0  0  0  0  0  0  0  0  0
    6.2333    1.7668    0.0000 H   0  0  0  0  0  0  0  0  0  0  0  0
    5.6013   -1.6045    0.0000 H   0  0  0  0  0  0  0  0  0  0  0  0
    8.8636   -2.3838    0.0000 H   0  0  0  0  0  0  0  0  0  0  0  0
    8.9281   -0.5380    0.0000 H   0  0  0  0  0  0  0  0  0  0  0  0
    6.7504   -2.5686    0.0000 H   0  0  0  0  0  0  0  0  0  0  0  0
    6.5067    1.7907    0.0000 H   0  0  0  0  0  0  0  0  0  0  0  0
    8.9821    3.2611    0.0000 H   0  0  0  0  0  0  0  0  0  0  0  0
    9.8421    1.1853    0.0000 H   0  0  0  0  0  0  0  0  0  0  0  0
    7.1456    2.5002    0.0000 H   0  0  0  0  0  0  0  0  0  0  0  0
    7.8618   -1.5285    0.0000 H   0  0  0  0  0  0  0  0  0  0  0  0
   10.9249   -0.2117    0.0000 H   0  0  0  0  0  0  0  0  0  0  0  0
    8.8636   -2.3838    0.0000 H   0  0  0  0  0  0  0  0  0  0  0  0
   10.0329   -3.3646    0.0000 H   0  0  0  0  0  0  0  0  0  0  0  0
   10.7347   -4.3249    0.0000 H   0  0  0  0  0  0  0  0  0  0  0  0
   12.5579   -4.7291    0.0000 H   0  0  0  0  0  0  0  0  0  0  0  0
   13.6728   -4.3233    0.0000 H   0  0  0  0  0  0  0  0  0  0  0  0
   14.7953   -2.6591    0.0000 H   0  0  0  0  0  0  0  0  0  0  0  0
   14.7539   -1.4734    0.0000 H   0  0  0  0  0  0  0  0  0  0  0  0
   13.6961    0.0657    0.0000 H   0  0  0  0  0  0  0  0  0  0  0  0
   13.3147   -1.0076    0.0000 H   0  0  0  0  0  0  0  0  0  0  0  0
   13.8264    0.8237    0.0000 H   0  0  0  0  0  0  0  0  0  0  0  0
   10.9009    0.0616    0.0000 H   0  0  0  0  0  0  0  0  0  0  0  0
   11.5713    3.1767    0.0000 H   0  0  0  0  0  0  0  0  0  0  0  0
    9.8800    3.3396    0.0000 H   0  0  0  0  0  0  0  0  0  0  0  0
   11.9553    1.3701    0.0000 H   0  0  0  0  0  0  0  0  0  0  0  0
    7.1456    1.1853    0.0000 H   0  0  0  0  0  0  0  0  0  0  0  0
    6.3343    2.6287    0.0000 H   0  0  0  0  0  0  0  0  0  0  0  0
    7.4834    4.6190    0.0000 H   0  0  0  0  0  0  0  0  0  0  0  0
    9.5043    4.6190    0.0000 H   0  0  0  0  0  0  0  0  0  0  0  0
   10.7356    2.9851    0.0000 H   0  0  0  0  0  0  0  0  0  0  0  0
    5.2315    2.6220    0.0000 H   0  0  0  0  0  0  0  0  0  0  0  0
    3.3857    2.6865    0.0000 H   0  0  0  0  0  0  0  0  0  0  0  0
    2.8520   -2.2347    0.0000 H   0  0  0  0  0  0  0  0  0  0  0  0
    1.4436   -1.1105    0.0000 H   0  0  0  0  0  0  0  0  0  0  0  0
    2.9041    5.5871    0.0000 H   0  0  0  0  0  0  0  0  0  0  0  0
    4.4041    4.0871    0.0000 H   0  0  0  0  0  0  0  0  0  0  0  0
    2.0796    0.8816    0.0000 H   0  0  0  0  0  0  0  0  0  0  0  0
    1.3543   -1.4183    0.0000 H   0  0  0  0  0  0  0  0  0  0  0  0
   -0.0448   -2.1989    0.0000 H   0  0  0  0  0  0  0  0  0  0  0  0
   -1.9330   -2.2500    0.0000 H   0  0  0  0  0  0  0  0  0  0  0  0
   -4.9330   -0.7500    0.0000 H   0  0  0  0  0  0  0  0  0  0  0  0
   -3.4330   -2.2500    0.0000 H   0  0  0  0  0  0  0  0  0  0  0  0
   -3.7960    0.7054    0.0000 H   0  0  0  0  0  0  0  0  0  0  0  0
   -4.3259   -0.0274    0.0000 H   0  0  0  0  0  0  0  0  0  0  0  0
   -4.7063    1.8424    0.0000 H   0  0  0  0  0  0  0  0  0  0  0  0
   -4.0420    4.6563    0.0000 H   0  0  0  0  0  0  0  0  0  0  0  0
   -2.0669    4.4313    0.0000 H   0  0  0  0  0  0  0  0  0  0  0  0
   -4.5060    2.7234    0.0000 H   0  0  0  0  0  0  0  0  0  0  0  0
   -0.7003    5.8214    0.0000 H   0  0  0  0  0  0  0  0  0  0  0  0
    0.6505    4.5618    0.0000 H   0  0  0  0  0  0  0  0  0  0  0  0
   -2.2983    4.6390    0.0000 H   0  0  0  0  0  0  0  0  0  0  0  0
  1  2  1  0
  2  3  1  0
  3  4  1  0
  4  5  1  0
  5  6  1  0
  6  7  1  0
  7  8  1  0
  7  9  1  0
  9 10  1  0
  9 11  1  0
 11 12  1  0
 12 13  1  0
 13 14  1  0
 14 15  1  0
 15 16  1  0
 16 17  1  0
 17 18  1  0
 11 19  1  0
 19 20  1  0
 19 21  1  0
 21 22  1  0
 22 23  1  0
  6 24  1  0
 24 25  1  0
 25 26  1  0
 25 27  1  0
 27 28  1  0
 27 29  1  0
 29 30  1  0
 29 31  1  0
 31 32  1  0
 32 33  1  0
 33 34  1  0
 34 35  1  0
 35 36  1  0
 36 37  1  0
 37 38  1  0
 38 39  1  0
 38 40  1  0
 40 41  1  0
 41 42  1  0
 42 43  1  0
 42 44  1  0
 44 45  1  0
 25  5  1  0
 33 27  1  0
 37 35  1  0
 42 40  1  0
 17 13  1  0
 23 21  1  0
 33 29  1  0
 40 35  1  0
  1 46  1  0
  1 47  1  0
  1 48  1  0
  2 49  1  0
  2 50  1  0
  3 51  1  0
  3 52  1  0
  6 53  1  0
  7 54  1  0
  8 55  1  0
  8 56  1  0
  8 57  1  0
  9 58  1  0
 10 59  1  0
 10 60  1  0
 10 61  1  0
 11 62  1  0
 12 63  1  0
 12 64  1  0
 13 65  1  0
 14 66  1  0
 14 67  1  0
 15 68  1  0
 15 69  1  0
 16 70  1  0
 16 71  1  0
 17 72  1  0
 18 73  1  0
 19 74  1  0
 20 75  1  0
 20 76  1  0
 20 77  1  0
 21 78  1  0
 22 79  1  0
 22 80  1  0
 23 81  1  0
 23 82  1  0
 24 83  1  0
 24 84  1  0
 26 85  1  0
 28 86  1  0
 31 87  1  0
 31 88  1  0
 36 89  1  0
 36 90  1  0
 37 91  1  0
 38 92  1  0
 39 93  1  0
 39 94  1  0
 39 95  1  0
 41 96  1  0
 41 97  1  0
 43 98  1  0
 43 99  1  0
 43100  1  0
 45101  1  0
 45102  1  0
 45103  1  0
M  END
$$$$
