
     RDKit          2D

 33 36  0  0  0  0  0  0  0  0999 V2000
   -1.9102    2.5105    0.0000 C   0  0  0  0  0  0  0  0  0  0  0  0
   -1.9102    1.0105    0.0000 C   0  0  0  0  0  0  0  0  0  0  0  0
   -0.4330    0.7500    0.0000 C   0  0  0  0  0  0  0  0  0  0  0  0
    0.1799    1.9528    0.0000 F   0  0  0  0  0  0  0  0  0  0  0  0
    0.8660    0.0000    0.0000 C   0  0  0  0  0  0  0  0  0  0  0  0
   -0.4330   -0.7500    0.0000 C   0  0  0  0  0  0  0  0  0  0  0  0
    0.0800   -2.1595    0.0000 C   0  0  0  0  0  0  0  0  0  0  0  0
    0.0800   -3.6595    0.0000 C   0  0  0  0  0  0  0  0  0  0  0  0
   -1.2190   -2.9095    0.0000 C   0  0  0  0  0  0  0  0  0  0  0  0
   -2.1832   -4.0586    0.0000 C   0  0  0  0  0  0  0  0  0  0  0  0
   -3.4822   -4.8086    0.0000 C   0  0  0  0  0  0  0  0  0  0  0  0
   -3.4822   -3.3086    0.0000 C   0  0  0  0  0  0  0  0  0  0  0  0
   -3.3874    0.7500    0.0000 C   0  0  0  0  0  0  0  0  0  0  0  0
   -2.4233   -0.3991    0.0000 C   0  0  0  0  0  0  0  0  0  0  0  0
   -1.9102    4.0105    0.0000 H   0  0  0  0  0  0  0  0  0  0  0  0
   -0.5703    2.6750    0.0000 H   0  0  0  0  0  0  0  0  0  0  0  0
   -3.2502    2.6750    0.0000 H   0  0  0  0  0  0  0  0  0  0  0  0
    1.8302    1.1491    0.0000 H   0  0  0  0  0  0  0  0  0  0  0  0
    1.9631   -1.0230    0.0000 H   0  0  0  0  0  0  0  0  0  0  0  0
   -1.2181   -0.8884    0.0000 H   0  0  0  0  0  0  0  0  0  0  0  0
    1.5780   -2.0811    0.0000 H   0  0  0  0  0  0  0  0  0  0  0  0
    1.5572   -3.9200    0.0000 H   0  0  0  0  0  0  0  0  0  0  0  0
   -0.2574   -5.1211    0.0000 H   0  0  0  0  0  0  0  0  0  0  0  0
   -2.0868   -1.8754    0.0000 H   0  0  0  0  0  0  0  0  0  0  0  0
   -1.3663   -5.3166    0.0000 H   0  0  0  0  0  0  0  0  0  0  0  0
   -2.9692   -6.2181    0.0000 H   0  0  0  0  0  0  0  0  0  0  0  0
   -4.9595   -5.0691    0.0000 H   0  0  0  0  0  0  0  0  0  0  0  0
   -4.9595   -3.0481    0.0000 H   0  0  0  0  0  0  0  0  0  0  0  0
   -3.3680   -2.2211    0.0000 H   0  0  0  0  0  0  0  0  0  0  0  0
   -4.0004    1.9528    0.0000 H   0  0  0  0  0  0  0  0  0  0  0  0
   -4.6865   -0.0000    0.0000 H   0  0  0  0  0  0  0  0  0  0  0  0
   -3.2230   -1.1448    0.0000 H   0  0  0  0  0  0  0  0  0  0  0  0
   -1.7159   -0.9321    0.0000 H   0  0  0  0  0  0  0  0  0  0  0  0
  1  2  1  0
  2  3  1  0
  3  4  1  0
  3  5  1  0
  5  6  1  0
  6  7  1  0
  7  8  1  0
  8  9  1  0
  9 10  1  0
 10 11  1  0
 11 12  1  0
  2 13  1  0
 13 14  1  0
 14  2  1  0
  6  3  1  0
  9  7  1  0
 12 10  1  0
  1 15  1  0
  1 16  1  0
  1 17  1  0
  5 18  1  0
  5 19  1  0
  6 20  1  0
  7 21  1  0
  8 22  1  0
  8 23  1  0
  9 24  1  0
 10 25  1  0
 11 26  1  0
 11 27  1  0
 12 28  1  0
 12 29  1  0
 13 30  1  0
 13 31  1  0
 14 32  1  0
 14 33  1  0
M  END
$$$$
