
     RDKit          2D

 77 84  0  0  0  0  0  0  0  0999 V2000
   -7.2615  -11.1202    0.0000 C   0  0  0  0  0  0  0  0  0  0  0  0
   -6.5573  -12.4446    0.0000 C   0  0  0  0  0  0  0  0  0  0  0  0
   -5.0582  -12.4970    0.0000 C   0  0  0  0  0  0  0  0  0  0  0  0
   -3.5591  -12.5493    0.0000 C   0  0  0  0  0  0  0  0  0  0  0  0
   -2.0600  -12.6017    0.0000 C   0  0  0  0  0  0  0  0  0  0  0  0
   -0.5609  -12.6540    0.0000 C   0  0  0  0  0  0  0  0  0  0  0  0
   -0.6133  -14.1531    0.0000 C   0  0  0  0  0  0  0  0  0  0  0  0
   -0.5086  -11.1550    0.0000 C   0  0  0  0  0  0  0  0  0  0  0  0
   -2.0077  -11.1026    0.0000 C   0  0  0  0  0  0  0  0  0  0  0  0
   -1.9553   -9.6035    0.0000 C   0  0  0  0  0  0  0  0  0  0  0  0
   -1.9030   -8.1044    0.0000 C   0  0  0  0  0  0  0  0  0  0  0  0
   -3.3884   -8.3132    0.0000 C   0  0  0  0  0  0  0  0  0  0  0  0
   -4.3119   -7.1312    0.0000 C   0  0  0  0  0  0  0  0  0  0  0  0
   -5.5839   -6.3363    0.0000 C   0  0  0  0  0  0  0  0  0  0  0  0
   -3.7500   -5.7404    0.0000 Se  0  0  0  0  0  2  0  0  0  0  0  0
   -2.2646   -5.5316    0.0000 C   0  0  0  0  0  0  0  0  0  0  0  0
   -1.3411   -6.7137    0.0000 C   0  0  0  0  0  0  0  0  0  0  0  0
    0.0497   -7.2756    0.0000 C   0  0  0  0  0  0  0  0  0  0  0  0
   -0.2622   -8.7428    0.0000 C   0  0  0  0  0  0  0  0  0  0  0  0
   -0.1591   -5.7902    0.0000 C   0  0  0  0  0  0  0  0  0  0  0  0
    1.2675   -5.3266    0.0000 C   0  0  0  0  0  0  0  0  0  0  0  0
    2.4495   -4.4031    0.0000 C   0  0  0  0  0  0  0  0  0  0  0  0
    1.0588   -3.8412    0.0000 C   0  0  0  0  0  0  0  0  0  0  0  0
    1.3706   -2.3740    0.0000 C   0  0  0  0  0  0  0  0  0  0  0  0
    1.9807   -1.0037    0.0000 O   0  0  0  0  0  0  0  0  0  0  0  0
    0.8660    0.0000    0.0000 C   0  0  0  0  0  0  0  0  0  0  0  0
   -0.4330    0.7500    0.0000 C   0  0  0  0  0  0  0  0  0  0  0  0
   -1.8596    1.2135    0.0000 Mg  0  0  0  0  0  2  0  0  0  0  0  0
   -2.7413    0.0000    0.0000 C   0  0  0  0  0  0  0  0  0  0  0  0
   -2.3845   -1.4569    0.0000 C   0  0  0  0  0  0  0  0  0  0  0  0
   -0.1211   -2.2172    0.0000 C   0  0  0  0  0  0  0  0  0  0  0  0
   -0.4330   -0.7500    0.0000 C   0  0  0  0  0  0  0  0  0  0  0  0
   -1.6433   -0.5478    0.0000 C   0  0  0  0  0  0  0  0  0  0  0  0
   -8.7606  -11.0679    0.0000 H   0  0  0  0  0  0  0  0  0  0  0  0
   -6.4666   -9.8481    0.0000 H   0  0  0  0  0  0  0  0  0  0  0  0
   -7.3522  -13.7167    0.0000 H   0  0  0  0  0  0  0  0  0  0  0  0
   -5.0059  -10.9979    0.0000 H   0  0  0  0  0  0  0  0  0  0  0  0
   -5.1106  -13.9961    0.0000 H   0  0  0  0  0  0  0  0  0  0  0  0
   -3.6363  -11.6670    0.0000 H   0  0  0  0  0  0  0  0  0  0  0  0
   -3.6115  -14.0484    0.0000 H   0  0  0  0  0  0  0  0  0  0  0  0
   -2.1986  -13.4765    0.0000 H   0  0  0  0  0  0  0  0  0  0  0  0
    0.9381  -12.7064    0.0000 H   0  0  0  0  0  0  0  0  0  0  0  0
   -0.6656  -15.6522    0.0000 H   0  0  0  0  0  0  0  0  0  0  0  0
    0.8858  -14.2055    0.0000 H   0  0  0  0  0  0  0  0  0  0  0  0
   -1.4957  -14.2303    0.0000 H   0  0  0  0  0  0  0  0  0  0  0  0
    0.9905  -11.2073    0.0000 H   0  0  0  0  0  0  0  0  0  0  0  0
   -0.4742  -10.1714    0.0000 H   0  0  0  0  0  0  0  0  0  0  0  0
   -2.8825  -10.9640    0.0000 H   0  0  0  0  0  0  0  0  0  0  0  0
   -0.9718   -9.6379    0.0000 H   0  0  0  0  0  0  0  0  0  0  0  0
   -3.4496   -9.7343    0.0000 H   0  0  0  0  0  0  0  0  0  0  0  0
   -0.5548   -8.7621    0.0000 H   0  0  0  0  0  0  0  0  0  0  0  0
   -4.7128   -9.0174    0.0000 H   0  0  0  0  0  0  0  0  0  0  0  0
   -3.1022   -9.7856    0.0000 H   0  0  0  0  0  0  0  0  0  0  0  0
   -5.3156   -8.2459    0.0000 H   0  0  0  0  0  0  0  0  0  0  0  0
   -6.8560   -5.5414    0.0000 H   0  0  0  0  0  0  0  0  0  0  0  0
   -4.7891   -5.0642    0.0000 H   0  0  0  0  0  0  0  0  0  0  0  0
   -6.3788   -7.6084    0.0000 H   0  0  0  0  0  0  0  0  0  0  0  0
   -1.0359   -4.6712    0.0000 H   0  0  0  0  0  0  0  0  0  0  0  0
   -2.7281   -4.1051    0.0000 H   0  0  0  0  0  0  0  0  0  0  0  0
    1.5312   -7.5103    0.0000 H   0  0  0  0  0  0  0  0  0  0  0  0
   -0.5740  -10.2100    0.0000 H   0  0  0  0  0  0  0  0  0  0  0  0
    1.2051   -9.0547    0.0000 H   0  0  0  0  0  0  0  0  0  0  0  0
   -1.7612   -8.7952    0.0000 H   0  0  0  0  0  0  0  0  0  0  0  0
   -0.8633   -4.4657    0.0000 H   0  0  0  0  0  0  0  0  0  0  0  0
    2.1279   -6.5553    0.0000 H   0  0  0  0  0  0  0  0  0  0  0  0
    3.5643   -5.4068    0.0000 H   0  0  0  0  0  0  0  0  0  0  0  0
    3.3936   -3.2375    0.0000 H   0  0  0  0  0  0  0  0  0  0  0  0
   -0.4403   -3.7889    0.0000 H   0  0  0  0  0  0  0  0  0  0  0  0
    2.8431   -2.6602    0.0000 H   0  0  0  0  0  0  0  0  0  0  0  0
    1.7477    1.2135    0.0000 H   0  0  0  0  0  0  0  0  0  0  0  0
    0.1771    2.1203    0.0000 H   0  0  0  0  0  0  0  0  0  0  0  0
   -4.2413    0.0000    0.0000 H   0  0  0  0  0  0  0  0  0  0  0  0
   -3.8843   -1.4768    0.0000 H   0  0  0  0  0  0  0  0  0  0  0  0
   -2.3384   -2.9562    0.0000 H   0  0  0  0  0  0  0  0  0  0  0  0
   -1.1248   -3.3319    0.0000 H   0  0  0  0  0  0  0  0  0  0  0  0
   -3.0575   -2.1163    0.0000 H   0  0  0  0  0  0  0  0  0  0  0  0
   -1.4211   -2.6480    0.0000 H   0  0  0  0  0  0  0  0  0  0  0  0
  1  2  2  3
  2  3  1  0
  3  4  1  0
  4  5  1  0
  5  6  1  0
  6  7  1  0
  6  8  1  0
  8  9  1  0
  9 10  1  0
 10 11  1  0
 11 12  1  0
 12 13  1  0
 13 14  1  0
 13 15  1  0
 15 16  1  0
 17 16  1  6
 17 18  1  0
 18 19  1  0
 18 20  1  0
 20 21  1  0
 21 22  1  0
 22 23  1  0
 23 24  1  0
 24 25  1  0
 25 26  1  0
 26 27  1  0
 27 28  1  0
 28 29  1  0
 29 30  1  0
 30 31  1  0
 31 32  1  0
 32 33  1  1
  9  5  1  0
 17 11  1  0
 23 21  1  0
 31 24  1  0
 20 17  1  0
 32 26  1  0
 32 27  1  0
 33 29  1  0
  1 34  1  0
  1 35  1  0
  2 36  1  0
  3 37  1  0
  3 38  1  0
  4 39  1  0
  4 40  1  0
  5 41  1  6
  6 42  1  1
  7 43  1  0
  7 44  1  0
  7 45  1  0
  8 46  1  0
  8 47  1  0
  9 48  1  1
 10 49  1  0
 10 50  1  0
 11 51  1  6
 12 52  1  0
 12 53  1  0
 13 54  1  6
 14 55  1  0
 14 56  1  0
 14 57  1  0
 16 58  1  0
 16 59  1  0
 18 60  1  1
 19 61  1  0
 19 62  1  0
 19 63  1  0
 20 64  1  6
 21 65  1  6
 22 66  1  0
 22 67  1  0
 23 68  1  1
 24 69  1  6
 26 70  1  6
 27 71  1  6
 29 72  1  6
 30 73  1  0
 30 74  1  0
 31 75  1  6
 33 76  1  0
 33 77  1  0
M  END
$$$$
