
     RDKit          2D

 59 66  0  0  0  0  0  0  0  0999 V2000
   -4.3336    8.6772    0.0000 C   0  0  0  0  0  0  0  0  0  0  0  0
   -3.5319    7.4094    0.0000 C   0  0  0  0  0  0  0  0  0  0  0  0
   -2.7302    6.1416    0.0000 C   0  0  0  0  0  0  0  0  0  0  0  0
   -1.7355    7.2644    0.0000 C   0  0  0  0  0  0  0  0  0  0  0  0
   -1.2605    5.8416    0.0000 C   0  0  0  0  0  0  0  0  0  0  0  0
   -0.0986    4.8929    0.0000 C   0  0  0  0  0  0  0  0  0  0  0  0
    0.4894    3.5129    0.0000 C   0  0  0  0  0  0  0  0  0  0  0  0
    0.3687    2.0178    0.0000 C   0  0  0  0  0  0  0  0  0  0  0  0
    1.3905    4.7121    0.0000 C   0  0  0  0  0  0  0  0  0  0  0  0
   -0.4330    0.7500    0.0000 C   0  0  0  0  0  0  0  0  0  0  0  0
    0.8660    0.0000    0.0000 O   0  0  0  0  0  0  0  0  0  0  0  0
   -0.4330   -0.7500    0.0000 C   0  0  0  0  0  0  0  0  0  0  0  0
   -1.7321    0.0000    0.0000 C   0  0  0  0  0  0  0  0  0  0  0  0
   -3.2308   -0.0604    0.0000 C   0  0  0  0  0  0  0  0  0  0  0  0
   -4.5860    0.5826    0.0000 C   0  0  0  0  0  0  0  0  0  0  0  0
   -6.0751    0.4018    0.0000 C   0  0  0  0  0  0  0  0  0  0  0  0
   -5.4871    1.7818    0.0000 C   0  0  0  0  0  0  0  0  0  0  0  0
   -5.7277    3.2624    0.0000 N   0  0  0  0  0  0  0  0  0  0  0  0
   -5.2527    4.6852    0.0000 C   0  0  0  0  0  0  0  0  0  0  0  0
   -4.1709    5.7243    0.0000 C   0  0  0  0  0  0  0  0  0  0  0  0
   -5.5261    6.3673    0.0000 C   0  0  0  0  0  0  0  0  0  0  0  0
   -6.8813    7.0103    0.0000 C   0  0  0  0  0  0  0  0  0  0  0  0
   -8.2365    7.6534    0.0000 C   0  0  0  0  0  0  0  0  0  0  0  0
   -9.2900    8.7211    0.0000 C   0  0  0  0  0  0  0  0  0  0  0  0
   -7.8385    9.0996    0.0000 C   0  0  0  0  0  0  0  0  0  0  0  0
   -7.9592   10.5948    0.0000 C   0  0  0  0  0  0  0  0  0  0  0  0
   -5.1353    9.9450    0.0000 H   0  0  0  0  0  0  0  0  0  0  0  0
   -3.0658    9.4789    0.0000 H   0  0  0  0  0  0  0  0  0  0  0  0
   -5.7577    8.2061    0.0000 H   0  0  0  0  0  0  0  0  0  0  0  0
   -2.9151    7.9144    0.0000 H   0  0  0  0  0  0  0  0  0  0  0  0
   -4.9560    6.9383    0.0000 H   0  0  0  0  0  0  0  0  0  0  0  0
   -2.1515    7.9443    0.0000 H   0  0  0  0  0  0  0  0  0  0  0  0
   -0.4168    7.9792    0.0000 H   0  0  0  0  0  0  0  0  0  0  0  0
   -0.1391    6.8378    0.0000 H   0  0  0  0  0  0  0  0  0  0  0  0
    0.6532    6.1909    0.0000 H   0  0  0  0  0  0  0  0  0  0  0  0
    1.8919    2.9810    0.0000 H   0  0  0  0  0  0  0  0  0  0  0  0
    1.7915    1.5428    0.0000 H   0  0  0  0  0  0  0  0  0  0  0  0
    2.7705    5.3000    0.0000 H   0  0  0  0  0  0  0  0  0  0  0  0
   -0.4330   -2.2500    0.0000 H   0  0  0  0  0  0  0  0  0  0  0  0
   -1.9108   -1.4893    0.0000 H   0  0  0  0  0  0  0  0  0  0  0  0
   -2.8155   -1.5017    0.0000 H   0  0  0  0  0  0  0  0  0  0  0  0
   -4.1779   -1.2236    0.0000 H   0  0  0  0  0  0  0  0  0  0  0  0
   -5.0053   -0.8576    0.0000 H   0  0  0  0  0  0  0  0  0  0  0  0
   -6.1556   -1.0960    0.0000 H   0  0  0  0  0  0  0  0  0  0  0  0
   -7.5362    0.7412    0.0000 H   0  0  0  0  0  0  0  0  0  0  0  0
   -6.9762    1.9626    0.0000 H   0  0  0  0  0  0  0  0  0  0  0  0
   -6.6088    5.3264    0.0000 H   0  0  0  0  0  0  0  0  0  0  0  0
   -4.4156    7.2042    0.0000 H   0  0  0  0  0  0  0  0  0  0  0  0
   -5.0531    7.7908    0.0000 H   0  0  0  0  0  0  0  0  0  0  0  0
   -6.3295    5.1006    0.0000 H   0  0  0  0  0  0  0  0  0  0  0  0
   -7.5243    5.6552    0.0000 H   0  0  0  0  0  0  0  0  0  0  0  0
   -6.2382    8.3655    0.0000 H   0  0  0  0  0  0  0  0  0  0  0  0
   -9.1051    6.4305    0.0000 H   0  0  0  0  0  0  0  0  0  0  0  0
  -10.5245    7.8690    0.0000 H   0  0  0  0  0  0  0  0  0  0  0  0
  -10.0763    9.9985    0.0000 H   0  0  0  0  0  0  0  0  0  0  0  0
   -6.3391    9.1420    0.0000 H   0  0  0  0  0  0  0  0  0  0  0  0
   -8.0799   12.0899    0.0000 H   0  0  0  0  0  0  0  0  0  0  0  0
   -6.4641   10.7155    0.0000 H   0  0  0  0  0  0  0  0  0  0  0  0
   -9.4579   10.6572    0.0000 H   0  0  0  0  0  0  0  0  0  0  0  0
  1  2  1  0
  3  2  1  6
  3  4  1  0
  4  5  1  0
  5  6  1  0
  6  7  1  0
  7  8  1  0
  8  9  1  0
  8 10  1  0
 10 11  1  6
 11 12  1  0
 12 13  1  0
 13 14  1  0
 14 15  1  0
 15 16  1  0
 16 17  1  0
 17 18  1  0
 18 19  2  0
 19 20  1  0
 20 21  1  0
 21 22  1  0
 22 23  1  0
 23 24  1  0
 24 25  1  0
 25 26  1  0
  5  3  1  0
  9  6  1  0
 12 10  1  0
 17 15  1  0
 25 23  1  0
 20  3  1  0
  9  7  1  0
 13 10  1  0
  1 27  1  0
  1 28  1  0
  1 29  1  0
  2 30  1  0
  2 31  1  0
  4 32  1  0
  4 33  1  0
  5 34  1  1
  6 35  1  6
  7 36  1  6
  8 37  1  6
  9 38  1  6
 12 39  1  1
 13 40  1  1
 14 41  1  0
 14 42  1  0
 15 43  1  6
 16 44  1  0
 16 45  1  0
 17 46  1  1
 19 47  1  0
 20 48  1  1
 21 49  1  0
 21 50  1  0
 22 51  1  0
 22 52  1  0
 23 53  1  1
 24 54  1  0
 24 55  1  0
 25 56  1  6
 26 57  1  0
 26 58  1  0
 26 59  1  0
M  END
$$$$
