
     RDKit          2D

 35 38  0  0  0  0  0  0  0  0999 V2000
   -4.0132    3.7371    0.0000 C   0  0  0  0  0  0  0  0  0  0  0  0
   -2.7997    2.8554    0.0000 C   0  0  0  0  0  0  0  0  0  0  0  0
   -1.5861    1.9737    0.0000 N   0  0  0  0  0  0  0  0  0  0  0  0
   -0.2158    2.5838    0.0000 C   0  0  0  0  0  0  0  0  0  0  0  0
   -0.8259    3.9542    0.0000 C   0  0  0  0  0  0  0  0  0  0  0  0
   -0.9305    5.4505    0.0000 C   0  0  0  0  0  0  0  0  0  0  0  0
    0.4176    4.7930    0.0000 C   0  0  0  0  0  0  0  0  0  0  0  0
    0.3943    1.2135    0.0000 C   0  0  0  0  0  0  0  0  0  0  0  0
    0.7062   -0.2537    0.0000 O   0  0  0  0  0  0  0  0  0  0  0  0
    2.1979   -0.4105    0.0000 C   0  0  0  0  0  0  0  0  0  0  0  0
    3.5683   -1.0206    0.0000 N   0  0  0  0  0  0  0  0  0  0  0  0
    4.1784    0.3497    0.0000 C   0  0  0  0  0  0  0  0  0  0  0  0
    3.1606    2.2754    0.0000 C   0  0  0  0  0  0  0  0  0  0  0  0
    1.6933    1.9635    0.0000 C   0  0  0  0  0  0  0  0  0  0  0  0
    2.8081    0.9598    0.0000 S   0  0  0  0  0  4  0  0  0  0  0  0
   -5.2267    4.6188    0.0000 H   0  0  0  0  0  0  0  0  0  0  0  0
   -3.1315    4.9506    0.0000 H   0  0  0  0  0  0  0  0  0  0  0  0
   -4.8949    2.5236    0.0000 H   0  0  0  0  0  0  0  0  0  0  0  0
   -3.6813    1.6419    0.0000 H   0  0  0  0  0  0  0  0  0  0  0  0
   -2.4132    3.5526    0.0000 H   0  0  0  0  0  0  0  0  0  0  0  0
   -1.9236    0.5122    0.0000 H   0  0  0  0  0  0  0  0  0  0  0  0
    1.1545    3.1939    0.0000 H   0  0  0  0  0  0  0  0  0  0  0  0
   -1.6171    3.8570    0.0000 H   0  0  0  0  0  0  0  0  0  0  0  0
   -2.4223    5.6073    0.0000 H   0  0  0  0  0  0  0  0  0  0  0  0
   -0.5171    6.8924    0.0000 H   0  0  0  0  0  0  0  0  0  0  0  0
    1.2993    6.0065    0.0000 H   0  0  0  0  0  0  0  0  0  0  0  0
    1.6898    3.9981    0.0000 H   0  0  0  0  0  0  0  0  0  0  0  0
   -0.9651    0.5796    0.0000 H   0  0  0  0  0  0  0  0  0  0  0  0
    1.8097   -1.8594    0.0000 H   0  0  0  0  0  0  0  0  0  0  0  0
    4.1058   -2.4210    0.0000 H   0  0  0  0  0  0  0  0  0  0  0  0
    5.5787    0.8873    0.0000 H   0  0  0  0  0  0  0  0  0  0  0  0
    2.8487    3.7426    0.0000 H   0  0  0  0  0  0  0  0  0  0  0  0
    4.6278    2.5873    0.0000 H   0  0  0  0  0  0  0  0  0  0  0  0
    2.2064    3.3730    0.0000 H   0  0  0  0  0  0  0  0  0  0  0  0
    3.2963    2.3781    0.0000 H   0  0  0  0  0  0  0  0  0  0  0  0
  1  2  1  0
  2  3  1  0
  3  4  1  0
  4  5  1  0
  5  6  1  0
  6  7  1  0
  4  8  1  0
  8  9  1  0
  9 10  1  0
 10 11  1  0
 11 12  1  0
 12 13  1  0
 13 14  1  0
 14 15  1  0
  7  5  1  0
 14  8  1  0
 15 10  1  0
 15 12  1  0
  1 16  1  0
  1 17  1  0
  1 18  1  0
  2 19  1  0
  2 20  1  0
  3 21  1  0
  4 22  1  0
  5 23  1  0
  6 24  1  0
  6 25  1  0
  7 26  1  0
  7 27  1  0
  8 28  1  0
 10 29  1  0
 11 30  1  0
 12 31  1  0
 13 32  1  0
 13 33  1  0
 14 34  1  0
 15 35  1  0
M  END
$$$$
