
     RDKit          2D

 57 59  0  0  0  0  0  0  0  0999 V2000
   -6.4330   -4.4462    0.0000 C   0  0  0  0  0  0  0  0  0  0  0  0
   -5.6830   -3.1471    0.0000 C   0  0  0  0  0  0  0  0  0  0  0  0
   -4.9330   -1.8481    0.0000 C   0  0  0  0  0  0  0  0  0  0  0  0
   -4.1830   -0.5490    0.0000 C   0  0  0  0  0  0  0  0  0  0  0  0
   -5.3488    0.3948    0.0000 O   0  0  0  0  0  0  0  0  0  0  0  0
   -2.6830   -0.5490    0.0000 O   0  0  0  0  0  0  0  0  0  0  0  0
   -1.9330    0.7500    0.0000 N   0  0  0  0  0  0  0  0  0  0  0  0
   -2.6830    2.0490    0.0000 C   0  0  0  0  0  0  0  0  0  0  0  0
   -3.8321    1.0849    0.0000 O   0  0  0  0  0  0  0  0  0  0  0  0
   -1.9330    3.3481    0.0000 C   0  0  0  0  0  0  0  0  0  0  0  0
   -0.4330    3.3481    0.0000 N   0  0  0  0  0  0  0  0  0  0  0  0
    0.3170    2.0490    0.0000 N   0  0  0  0  0  0  0  0  0  0  0  0
   -1.1830    2.0490    0.0000 C   0  0  0  0  0  0  0  0  0  0  0  0
   -2.5926    1.5360    0.0000 C   0  0  0  0  0  0  0  0  0  0  0  0
   -4.0021    1.0230    0.0000 C   0  0  0  0  0  0  0  0  0  0  0  0
   -5.4116    0.5099    0.0000 C   0  0  0  0  0  0  0  0  0  0  0  0
   -2.0795    0.1265    0.0000 N   0  0  0  0  0  0  0  0  0  0  0  0
   -3.0437   -1.0226    0.0000 C   0  0  0  0  0  0  0  0  0  0  0  0
   -4.0079   -2.1717    0.0000 O   0  0  0  0  0  0  0  0  0  0  0  0
   -5.5042   -2.2764    0.0000 F   0  0  0  0  0  0  0  0  0  0  0  0
   -1.8946   -1.9868    0.0000 O   0  0  0  0  0  0  0  0  0  0  0  0
   -2.1551   -3.4640    0.0000 C   0  0  0  0  0  0  0  0  0  0  0  0
   -2.4156   -4.9412    0.0000 O   0  0  0  0  0  0  0  0  0  0  0  0
   -0.4330    0.7500    0.0000 C   0  0  0  0  0  0  0  0  0  0  0  0
    0.8660    0.0000    0.0000 C   0  0  0  0  0  0  0  0  0  0  0  0
   -0.4330   -0.7500    0.0000 N   0  0  0  0  0  0  0  0  0  0  0  0
   -1.1830   -2.0490    0.0000 C   0  0  0  0  0  0  0  0  0  0  0  0
    0.1160   -2.7990    0.0000 F   0  0  0  0  0  0  0  0  0  0  0  0
   -1.9330   -3.3481    0.0000 O   0  0  0  0  0  0  0  0  0  0  0  0
   -1.1830   -4.6471    0.0000 O   0  0  0  0  0  0  0  0  0  0  0  0
   -7.1830   -5.7452    0.0000 H   0  0  0  0  0  0  0  0  0  0  0  0
   -7.7321   -3.6962    0.0000 H   0  0  0  0  0  0  0  0  0  0  0  0
   -5.1340   -5.1962    0.0000 H   0  0  0  0  0  0  0  0  0  0  0  0
   -6.9821   -2.3971    0.0000 H   0  0  0  0  0  0  0  0  0  0  0  0
   -4.3840   -3.8971    0.0000 H   0  0  0  0  0  0  0  0  0  0  0  0
   -6.2321   -1.0981    0.0000 H   0  0  0  0  0  0  0  0  0  0  0  0
   -3.9891   -3.0139    0.0000 H   0  0  0  0  0  0  0  0  0  0  0  0
   -3.5646    3.2626    0.0000 H   0  0  0  0  0  0  0  0  0  0  0  0
   -5.0756    1.9237    0.0000 H   0  0  0  0  0  0  0  0  0  0  0  0
   -2.6830    4.6471    0.0000 H   0  0  0  0  0  0  0  0  0  0  0  0
    0.3170    4.6471    0.0000 H   0  0  0  0  0  0  0  0  0  0  0  0
   -1.1045    0.5511    0.0000 H   0  0  0  0  0  0  0  0  0  0  0  0
   -3.2736    2.8725    0.0000 H   0  0  0  0  0  0  0  0  0  0  0  0
   -4.6831    2.3595    0.0000 H   0  0  0  0  0  0  0  0  0  0  0  0
   -4.7296   -0.2888    0.0000 H   0  0  0  0  0  0  0  0  0  0  0  0
   -6.8212   -0.0031    0.0000 H   0  0  0  0  0  0  0  0  0  0  0  0
   -6.0927    1.8464    0.0000 H   0  0  0  0  0  0  0  0  0  0  0  0
   -5.2549   -0.9818    0.0000 H   0  0  0  0  0  0  0  0  0  0  0  0
   -0.7938   -0.6462    0.0000 H   0  0  0  0  0  0  0  0  0  0  0  0
   -4.4620   -0.5344    0.0000 H   0  0  0  0  0  0  0  0  0  0  0  0
   -0.6779   -3.7245    0.0000 H   0  0  0  0  0  0  0  0  0  0  0  0
   -3.6531   -3.3855    0.0000 H   0  0  0  0  0  0  0  0  0  0  0  0
   -1.3926   -6.0383    0.0000 H   0  0  0  0  0  0  0  0  0  0  0  0
    1.8302    1.1491    0.0000 H   0  0  0  0  0  0  0  0  0  0  0  0
    1.8302   -1.1491    0.0000 H   0  0  0  0  0  0  0  0  0  0  0  0
   -2.6502   -2.3611    0.0000 H   0  0  0  0  0  0  0  0  0  0  0  0
   -1.7691   -6.0279    0.0000 H   0  0  0  0  0  0  0  0  0  0  0  0
  1  2  1  0
  2  3  1  0
  3  4  1  0
  4  5  2  0
  4  6  1  0
  6  7  1  0
  7  8  1  0
  8  9  1  0
  8 10  1  0
 10 11  1  0
 11 12  1  0
 12 13  1  0
 13 14  1  0
 14 15  1  0
 15 16  1  0
 14 17  1  0
 17 18  1  0
 18 19  1  0
 19 20  1  0
 18 21  1  0
 21 22  1  0
 22 23  1  0
 12 24  1  0
 24 25  1  0
 25 26  1  0
 26 27  1  0
 27 28  1  0
 27 29  1  0
 29 30  1  0
 24  7  1  0
 13 10  1  0
 26 24  1  0
  1 31  1  0
  1 32  1  0
  1 33  1  0
  2 34  1  0
  2 35  1  0
  3 36  1  0
  3 37  1  0
  8 38  1  0
  9 39  1  0
 10 40  1  0
 11 41  1  0
 13 42  1  0
 14 43  1  0
 15 44  1  0
 15 45  1  0
 16 46  1  0
 16 47  1  0
 16 48  1  0
 17 49  1  0
 18 50  1  0
 22 51  1  0
 22 52  1  0
 23 53  1  0
 25 54  1  0
 25 55  1  0
 27 56  1  0
 30 57  1  0
M  END
$$$$
