
     RDKit          2D

 63 66  0  0  0  0  0  0  0  0999 V2000
   -1.4633   -8.4527    0.0000 C   0  0  0  0  0  0  0  0  0  0  0  0
   -1.1514   -6.9855    0.0000 C   0  0  0  0  0  0  0  0  0  0  0  0
   -0.8395   -5.5183    0.0000 C   0  0  0  0  0  0  0  0  0  0  0  0
   -0.5277   -4.0511    0.0000 C   0  0  0  0  0  0  0  0  0  0  0  0
   -0.2158   -2.5838    0.0000 C   0  0  0  0  0  0  0  0  0  0  0  0
   -1.7076   -2.4271    0.0000 C   0  0  0  0  0  0  0  0  0  0  0  0
   -2.0195   -0.9598    0.0000 C   0  0  0  0  0  0  0  0  0  0  0  0
   -0.7204   -0.2098    0.0000 C   0  0  0  0  0  0  0  0  0  0  0  0
    0.3943   -1.2135    0.0000 C   0  0  0  0  0  0  0  0  0  0  0  0
    1.6933   -1.9635    0.0000 C   0  0  0  0  0  0  0  0  0  0  0  0
    2.9924   -2.7135    0.0000 C   0  0  0  0  0  0  0  0  0  0  0  0
    3.9566   -1.5645    0.0000 C   0  0  0  0  0  0  0  0  0  0  0  0
    2.8075   -0.6003    0.0000 C   0  0  0  0  0  0  0  0  0  0  0  0
    3.7717    0.5488    0.0000 C   0  0  0  0  0  0  0  0  0  0  0  0
    4.9207   -0.4154    0.0000 C   0  0  0  0  0  0  0  0  0  0  0  0
    6.0698   -1.3796    0.0000 C   0  0  0  0  0  0  0  0  0  0  0  0
    5.8093   -2.8568    0.0000 C   0  0  0  0  0  0  0  0  0  0  0  0
    7.4793   -0.8665    0.0000 C   0  0  0  0  0  0  0  0  0  0  0  0
    8.8889   -0.3535    0.0000 C   0  0  0  0  0  0  0  0  0  0  0  0
    2.4793   -4.1231    0.0000 C   0  0  0  0  0  0  0  0  0  0  0  0
    2.7398   -5.6003    0.0000 C   0  0  0  0  0  0  0  0  0  0  0  0
    4.2170   -5.3398    0.0000 C   0  0  0  0  0  0  0  0  0  0  0  0
    5.6942   -5.0793    0.0000 C   0  0  0  0  0  0  0  0  0  0  0  0
    3.9566   -3.8626    0.0000 C   0  0  0  0  0  0  0  0  0  0  0  0
   -2.3068   -5.2064    0.0000 N   0  0  0  0  0  0  0  0  0  0  0  0
   -3.3105   -6.3211    0.0000 O   0  0  0  0  0  0  0  0  0  0  0  0
   -1.7751   -9.9200    0.0000 H   0  0  0  0  0  0  0  0  0  0  0  0
    0.5787   -6.0067    0.0000 H   0  0  0  0  0  0  0  0  0  0  0  0
   -1.3074   -3.8853    0.0000 H   0  0  0  0  0  0  0  0  0  0  0  0
    0.9666   -4.1818    0.0000 H   0  0  0  0  0  0  0  0  0  0  0  0
    1.1436   -3.2178    0.0000 H   0  0  0  0  0  0  0  0  0  0  0  0
   -3.1994   -2.5838    0.0000 H   0  0  0  0  0  0  0  0  0  0  0  0
   -1.8048   -3.2183    0.0000 H   0  0  0  0  0  0  0  0  0  0  0  0
   -2.6296    0.4105    0.0000 H   0  0  0  0  0  0  0  0  0  0  0  0
   -3.4460   -1.4234    0.0000 H   0  0  0  0  0  0  0  0  0  0  0  0
    0.3943    0.7939    0.0000 H   0  0  0  0  0  0  0  0  0  0  0  0
   -1.6021    1.0037    0.0000 H   0  0  0  0  0  0  0  0  0  0  0  0
    1.1215    0.0984    0.0000 H   0  0  0  0  0  0  0  0  0  0  0  0
    0.9433   -3.2626    0.0000 H   0  0  0  0  0  0  0  0  0  0  0  0
    2.1067   -0.5216    0.0000 H   0  0  0  0  0  0  0  0  0  0  0  0
    4.9795   -2.6615    0.0000 H   0  0  0  0  0  0  0  0  0  0  0  0
    1.7845    0.4968    0.0000 H   0  0  0  0  0  0  0  0  0  0  0  0
    1.5939   -1.4819    0.0000 H   0  0  0  0  0  0  0  0  0  0  0  0
    4.7359    1.6979    0.0000 H   0  0  0  0  0  0  0  0  0  0  0  0
    2.6226    1.5130    0.0000 H   0  0  0  0  0  0  0  0  0  0  0  0
    5.8849    0.7337    0.0000 H   0  0  0  0  0  0  0  0  0  0  0  0
    6.9584   -3.8210    0.0000 H   0  0  0  0  0  0  0  0  0  0  0  0
    4.5658   -3.6956    0.0000 H   0  0  0  0  0  0  0  0  0  0  0  0
    6.9663    0.5430    0.0000 H   0  0  0  0  0  0  0  0  0  0  0  0
    7.9924   -2.2761    0.0000 H   0  0  0  0  0  0  0  0  0  0  0  0
   10.2984    0.1595    0.0000 H   0  0  0  0  0  0  0  0  0  0  0  0
    9.4019   -1.7631    0.0000 H   0  0  0  0  0  0  0  0  0  0  0  0
    8.3759    1.0560    0.0000 H   0  0  0  0  0  0  0  0  0  0  0  0
    0.9851   -3.9923    0.0000 H   0  0  0  0  0  0  0  0  0  0  0  0
    3.0003   -7.0775    0.0000 H   0  0  0  0  0  0  0  0  0  0  0  0
    1.3054   -6.0389    0.0000 H   0  0  0  0  0  0  0  0  0  0  0  0
    4.4775   -6.8170    0.0000 H   0  0  0  0  0  0  0  0  0  0  0  0
    7.1715   -4.8189    0.0000 H   0  0  0  0  0  0  0  0  0  0  0  0
    5.9547   -6.5565    0.0000 H   0  0  0  0  0  0  0  0  0  0  0  0
    5.6158   -3.5814    0.0000 H   0  0  0  0  0  0  0  0  0  0  0  0
    5.4290   -3.5765    0.0000 H   0  0  0  0  0  0  0  0  0  0  0  0
   -2.9407   -3.8470    0.0000 H   0  0  0  0  0  0  0  0  0  0  0  0
   -4.7777   -6.0093    0.0000 H   0  0  0  0  0  0  0  0  0  0  0  0
  1  2  3  0
  2  3  1  0
  3  4  1  0
  4  5  1  0
  5  6  1  0
  6  7  1  0
  7  8  1  0
  8  9  1  0
  9 10  1  0
 10 11  1  0
 11 12  1  0
 12 13  1  0
 13 14  1  0
 14 15  1  0
 15 16  1  0
 16 17  2  3
 16 18  1  0
 18 19  1  0
 11 20  1  0
 20 21  1  0
 21 22  1  0
 22 23  1  0
 22 24  1  0
  3 25  1  0
 25 26  1  0
  9  5  1  0
 24 11  1  0
 15 12  1  0
 24 20  1  0
  1 27  1  0
  3 28  1  0
  4 29  1  0
  4 30  1  0
  5 31  1  0
  6 32  1  0
  6 33  1  0
  7 34  1  0
  7 35  1  0
  8 36  1  0
  8 37  1  0
  9 38  1  0
 10 39  1  0
 10 40  1  0
 12 41  1  0
 13 42  1  0
 13 43  1  0
 14 44  1  0
 14 45  1  0
 15 46  1  0
 17 47  1  0
 17 48  1  0
 18 49  1  0
 18 50  1  0
 19 51  1  0
 19 52  1  0
 19 53  1  0
 20 54  1  0
 21 55  1  0
 21 56  1  0
 22 57  1  0
 23 58  1  0
 23 59  1  0
 23 60  1  0
 24 61  1  0
 25 62  1  0
 26 63  1  0
M  END
$$$$
