
     RDKit          3D

 34 41  0  0  0  0  0  0  0  0999 V2000
   14.8543  -23.6205  -14.5272 C   0  0  0  0  0  0  0  0  0  0  0  0
   15.1092  -22.4529  -13.6222 C   0  0  0  0  0  0  0  0  0  0  0  0
   16.8482  -23.4969  -16.1791 C   0  0  0  0  0  0  0  0  0  0  0  0
   17.7413  -24.9332  -17.4534 C   0  0  0  0  0  0  0  0  0  0  0  0
   17.4821  -21.9762  -12.6590 C   0  0  0  0  0  0  0  0  0  0  0  0
   18.3308  -23.1297  -12.2177 C   0  0  0  0  0  0  0  0  0  0  0  0
   18.6203  -23.8406  -18.0327 C   0  0  0  0  0  0  0  0  0  0  0  0
   17.9993  -20.5576  -12.4864 C   0  0  0  0  0  0  0  0  0  0  0  0
   16.2936  -22.2219  -13.1354 C   0  0  0  0  0  0  0  0  0  0  0  0
   16.9906  -19.4457  -12.8436 C   0  0  0  0  0  0  0  0  0  0  0  0
   15.3237  -23.3804  -15.9704 C   0  0  0  0  0  0  0  0  0  0  0  0
   17.4118  -24.9222  -15.9838 C   0  0  0  0  0  0  0  0  0  0  0  0
   15.1705  -16.8762  -12.7550 C   0  0  0  0  0  0  0  0  0  0  0  0
   18.0393  -25.9036  -18.5442 C   0  0  0  0  0  0  0  0  0  0  0  0
   18.2904  -24.3532  -20.5879 C   0  0  0  0  0  0  0  0  0  0  0  0
   14.1208  -16.2272  -11.8808 C   0  0  0  0  0  0  0  0  0  0  0  0
   18.8583  -24.8039  -19.2355 C   0  0  0  0  0  0  0  0  0  0  0  0
   17.1691  -23.5819  -17.6710 C   0  0  0  0  0  0  0  0  0  0  0  0
   14.6704  -17.8197  -13.8570 C   0  0  0  0  0  0  0  0  0  0  0  0
   15.6885  -18.3781  -14.8984 C   0  0  0  0  0  0  0  0  0  0  0  0
   17.5397  -25.3679  -21.4411 C   0  0  0  0  0  0  0  0  0  0  0  0
   14.2730  -15.7615  -13.3069 C   0  0  0  0  0  0  0  0  0  0  0  0
   16.6891  -17.3797  -15.4774 C   0  0  0  0  0  0  0  0  0  0  0  0
   17.4771  -17.9544  -17.9154 C   0  0  0  0  0  0  0  0  0  0  0  0
   17.0975  -19.2892  -18.0915 O   0  0  0  0  0  0  0  0  0  0  0  0
   17.2793  -24.9781  -22.7705 O   0  0  0  0  0  0  0  0  0  0  0  0
   13.7905  -16.7029  -14.4067 C   0  0  0  0  0  0  0  0  0  0  0  0
   18.6358  -23.1474  -21.0985 C   0  0  0  0  0  0  0  0  0  0  0  0
   16.5117  -17.1755  -17.0089 C   0  0  0  0  0  0  0  0  0  0  0  0
   16.9069  -18.4423  -19.1967 C   0  0  0  0  0  0  0  0  0  0  0  0
   16.8435  -19.2536  -14.3820 C   0  0  0  0  0  0  0  0  0  0  0  0
   17.8457  -18.2708  -14.9779 C   0  0  0  0  0  0  0  0  0  0  0  0
   15.1920  -26.0670  -22.2294 C   0  0  0  0  0  0  0  0  0  0  0  0
   16.1809  -24.9561  -21.8828 C   0  0  0  0  0  0  0  0  0  0  0  0
  2  1  1  0
  6  5  1  0
  7  4  1  0
  8  5  1  0
  9  2  2  0
  9  5  2  0
 10  8  1  0
 11  1  1  0
 11  3  1  0
 12  3  1  0
 12  4  1  0
 14  4  1  0
 16 13  1  0
 17  7  1  0
 17 14  1  0
 17 15  1  0
 18  3  1  0
 18  4  1  0
 18  7  1  0
 19 13  1  0
 20 19  1  0
 21 15  1  0
 22 13  1  0
 22 16  1  0
 23 20  1  0
 25 24  1  0
 26 21  1  0
 27 19  1  0
 27 22  1  0
 28 15  2  0
 29 23  1  0
 29 24  1  0
 30 24  1  0
 30 25  1  0
 31 10  1  0
 31 20  1  0
 32 23  1  0
 32 31  1  0
 34 21  1  0
 34 26  1  0
 34 33  1  0
M  END
$$$$
