
     RDKit          2D

 40 42  0  0  0  0  0  0  0  0999 V2000
    3.0424   -4.6835    0.0000 C   0  0  0  0  0  0  0  0  0  0  0  0
    2.7819   -3.2063    0.0000 C   0  0  0  0  0  0  0  0  0  0  0  0
    2.5214   -1.7291    0.0000 C   0  0  0  0  0  0  0  0  0  0  0  0
    2.2609   -0.2518    0.0000 C   0  0  0  0  0  0  0  0  0  0  0  0
    2.0005    1.2254    0.0000 C   0  0  0  0  0  0  0  0  0  0  0  0
    1.0442   -1.9895    0.0000 C   0  0  0  0  0  0  0  0  0  0  0  0
   -0.4330   -2.2500    0.0000 C   0  0  0  0  0  0  0  0  0  0  0  0
   -1.7321   -3.0000    0.0000 C   0  0  0  0  0  0  0  0  0  0  0  0
   -3.0311   -2.2500    0.0000 O   0  0  0  0  0  0  0  0  0  0  0  0
   -3.0311   -0.7500    0.0000 C   0  0  0  0  0  0  0  0  0  0  0  0
   -4.5083   -1.0105    0.0000 C   0  0  0  0  0  0  0  0  0  0  0  0
   -5.9855   -1.2709    0.0000 N   0  0  0  0  0  2  0  0  0  0  0  0
   -4.7688    0.4667    0.0000 O   0  0  0  0  0  1  0  0  0  0  0  0
   -1.7321    0.0000    0.0000 C   0  0  0  0  0  0  0  0  0  0  0  0
   -0.4330    0.7500    0.0000 C   0  0  0  0  0  0  0  0  0  0  0  0
    0.8660    0.0000    0.0000 C   0  0  0  0  0  0  0  0  0  0  0  0
   -0.4330   -0.7500    0.0000 C   0  0  0  0  0  0  0  0  0  0  0  0
    3.3028   -6.1607    0.0000 H   0  0  0  0  0  0  0  0  0  0  0  0
    4.5196   -4.4230    0.0000 H   0  0  0  0  0  0  0  0  0  0  0  0
    1.5651   -4.9440    0.0000 H   0  0  0  0  0  0  0  0  0  0  0  0
    1.3474   -3.6449    0.0000 H   0  0  0  0  0  0  0  0  0  0  0  0
    4.2591   -2.9458    0.0000 H   0  0  0  0  0  0  0  0  0  0  0  0
    3.9986   -1.4686    0.0000 H   0  0  0  0  0  0  0  0  0  0  0  0
    3.7381    0.0086    0.0000 H   0  0  0  0  0  0  0  0  0  0  0  0
    1.4784   -0.0997    0.0000 H   0  0  0  0  0  0  0  0  0  0  0  0
    1.7400    2.7026    0.0000 H   0  0  0  0  0  0  0  0  0  0  0  0
    3.4777    1.4858    0.0000 H   0  0  0  0  0  0  0  0  0  0  0  0
    0.5233    0.9649    0.0000 H   0  0  0  0  0  0  0  0  0  0  0  0
    1.1227   -3.4875    0.0000 H   0  0  0  0  0  0  0  0  0  0  0  0
    0.9657   -0.4916    0.0000 H   0  0  0  0  0  0  0  0  0  0  0  0
    0.0800   -3.6595    0.0000 H   0  0  0  0  0  0  0  0  0  0  0  0
   -0.7679   -4.1491    0.0000 H   0  0  0  0  0  0  0  0  0  0  0  0
   -2.6962   -4.1491    0.0000 H   0  0  0  0  0  0  0  0  0  0  0  0
   -3.5441    0.6595    0.0000 H   0  0  0  0  0  0  0  0  0  0  0  0
   -4.2478   -2.4877    0.0000 H   0  0  0  0  0  0  0  0  0  0  0  0
   -6.4985   -2.6805    0.0000 H   0  0  0  0  0  0  0  0  0  0  0  0
   -0.6900   -1.0790    0.0000 H   0  0  0  0  0  0  0  0  0  0  0  0
   -0.4330    2.2500    0.0000 H   0  0  0  0  0  0  0  0  0  0  0  0
    1.5235    1.3482    0.0000 H   0  0  0  0  0  0  0  0  0  0  0  0
    1.8302   -1.1491    0.0000 H   0  0  0  0  0  0  0  0  0  0  0  0
  1  2  1  0
  2  3  1  0
  3  4  1  0
  4  5  1  0
  3  6  1  0
  6  7  1  0
  7  8  1  0
  8  9  1  0
  9 10  1  0
 10 11  1  0
 11 12  1  0
 11 13  1  0
 10 14  1  0
 14 15  1  0
 15 16  1  0
 16 17  1  0
 17  7  1  0
 17 14  1  0
 17 15  1  0
  1 18  1  0
  1 19  1  0
  1 20  1  0
  2 21  1  0
  2 22  1  0
  3 23  1  0
  4 24  1  0
  4 25  1  0
  5 26  1  0
  5 27  1  0
  5 28  1  0
  6 29  1  0
  6 30  1  0
  7 31  1  0
  8 32  1  0
  8 33  1  0
 10 34  1  0
 11 35  1  0
 12 36  1  0
 14 37  1  0
 15 38  1  0
 16 39  1  0
 16 40  1  0
M  RAD  2  12   2  13   2
M  END
$$$$
