
     RDKit          2D

 54 58  0  0  0  0  0  0  0  0999 V2000
   -2.0643    4.4676    0.0000 C   0  0  0  0  0  0  0  0  0  0  0  0
   -3.5606    4.3630    0.0000 C   0  0  0  0  0  0  0  0  0  0  0  0
   -5.0570    4.2584    0.0000 C   0  0  0  0  0  0  0  0  0  0  0  0
   -3.6653    5.8594    0.0000 C   0  0  0  0  0  0  0  0  0  0  0  0
   -3.7699    7.3557    0.0000 C   0  0  0  0  0  0  0  0  0  0  0  0
   -4.3800    8.7260    0.0000 C   0  0  0  0  0  0  0  0  0  0  0  0
   -5.2617    7.5125    0.0000 C   0  0  0  0  0  0  0  0  0  0  0  0
   -6.6099    8.1701    0.0000 N   0  0  0  0  0  0  0  0  0  0  0  0
   -7.0982    9.5883    0.0000 S   0  0  0  0  0  0  0  0  0  0  0  0
   -8.5165    9.1000    0.0000 C   0  0  0  0  0  0  0  0  0  0  0  0
   -8.0282    7.6817    0.0000 C   0  0  0  0  0  0  0  0  0  0  0  0
   -7.5398    6.2634    0.0000 N   0  0  0  0  0  0  0  0  0  0  0  0
   -3.4560    2.8667    0.0000 C   0  0  0  0  0  0  0  0  0  0  0  0
   -3.3514    1.3703    0.0000 C   0  0  0  0  0  0  0  0  0  0  0  0
   -1.8596    1.2135    0.0000 C   0  0  0  0  0  0  0  0  0  0  0  0
   -0.4330    0.7500    0.0000 C   0  0  0  0  0  0  0  0  0  0  0  0
    0.8660    0.0000    0.0000 C   0  0  0  0  0  0  0  0  0  0  0  0
    1.8302    1.1491    0.0000 C   0  0  0  0  0  0  0  0  0  0  0  0
    2.7944    2.2981    0.0000 Cl  0  0  0  0  0  0  0  0  0  0  0  0
   -0.4330   -0.7500    0.0000 C   0  0  0  0  0  0  0  0  0  0  0  0
    0.1771   -2.1203    0.0000 C   0  0  0  0  0  0  0  0  0  0  0  0
   -1.8596   -1.2135    0.0000 C   0  0  0  0  0  0  0  0  0  0  0  0
   -2.7413    0.0000    0.0000 C   0  0  0  0  0  0  0  0  0  0  0  0
   -0.5680    4.5723    0.0000 H   0  0  0  0  0  0  0  0  0  0  0  0
   -2.0179    5.3522    0.0000 H   0  0  0  0  0  0  0  0  0  0  0  0
   -1.7263    3.4277    0.0000 H   0  0  0  0  0  0  0  0  0  0  0  0
   -6.5533    4.1537    0.0000 H   0  0  0  0  0  0  0  0  0  0  0  0
   -5.3612    5.1943    0.0000 H   0  0  0  0  0  0  0  0  0  0  0  0
   -5.1355    2.7604    0.0000 H   0  0  0  0  0  0  0  0  0  0  0  0
   -4.6470    5.7907    0.0000 H   0  0  0  0  0  0  0  0  0  0  0  0
   -2.7958    6.0284    0.0000 H   0  0  0  0  0  0  0  0  0  0  0  0
   -2.3145    7.7186    0.0000 H   0  0  0  0  0  0  0  0  0  0  0  0
   -3.1365    9.5648    0.0000 H   0  0  0  0  0  0  0  0  0  0  0  0
   -5.4220    9.8050    0.0000 H   0  0  0  0  0  0  0  0  0  0  0  0
   -5.6890    6.5059    0.0000 H   0  0  0  0  0  0  0  0  0  0  0  0
   -9.9348    8.6116    0.0000 H   0  0  0  0  0  0  0  0  0  0  0  0
   -9.0049   10.5183    0.0000 H   0  0  0  0  0  0  0  0  0  0  0  0
   -9.4464    7.1933    0.0000 H   0  0  0  0  0  0  0  0  0  0  0  0
   -8.5239    5.1314    0.0000 H   0  0  0  0  0  0  0  0  0  0  0  0
   -6.4998    5.9255    0.0000 H   0  0  0  0  0  0  0  0  0  0  0  0
   -2.3652    2.9429    0.0000 H   0  0  0  0  0  0  0  0  0  0  0  0
   -4.9284    2.5804    0.0000 H   0  0  0  0  0  0  0  0  0  0  0  0
   -4.8068    1.0074    0.0000 H   0  0  0  0  0  0  0  0  0  0  0  0
   -1.2020    2.5617    0.0000 H   0  0  0  0  0  0  0  0  0  0  0  0
    0.0055    2.1845    0.0000 H   0  0  0  0  0  0  0  0  0  0  0  0
    1.9631   -1.0230    0.0000 H   0  0  0  0  0  0  0  0  0  0  0  0
    2.9793    0.1849    0.0000 H   0  0  0  0  0  0  0  0  0  0  0  0
    0.8072    2.2461    0.0000 H   0  0  0  0  0  0  0  0  0  0  0  0
    0.7872   -3.4906    0.0000 H   0  0  0  0  0  0  0  0  0  0  0  0
   -1.1086   -2.8929    0.0000 H   0  0  0  0  0  0  0  0  0  0  0  0
    1.6116   -1.6818    0.0000 H   0  0  0  0  0  0  0  0  0  0  0  0
   -1.4211   -2.6480    0.0000 H   0  0  0  0  0  0  0  0  0  0  0  0
   -3.1586   -1.9635    0.0000 H   0  0  0  0  0  0  0  0  0  0  0  0
   -4.0403   -0.7500    0.0000 H   0  0  0  0  0  0  0  0  0  0  0  0
  1  2  1  0
  2  3  1  0
  2  4  1  0
  4  5  1  0
  5  6  1  0
  6  7  1  0
  7  8  1  0
  8  9  1  0
  9 10  1  0
 10 11  1  0
 11 12  1  0
  2 13  1  0
 13 14  1  0
 14 15  1  0
 15 16  1  0
 16 17  1  0
 17 18  1  0
 18 19  1  0
 17 20  1  0
 20 21  1  6
 20 22  1  0
 22 23  1  0
  7  5  1  0
 11  8  1  0
 23 14  1  0
 23 15  1  0
 20 16  1  0
  1 24  1  0
  1 25  1  0
  1 26  1  0
  3 27  1  0
  3 28  1  0
  3 29  1  0
  4 30  1  0
  4 31  1  0
  5 32  1  1
  6 33  1  0
  6 34  1  0
  7 35  1  6
 10 36  1  0
 10 37  1  0
 11 38  1  6
 12 39  1  0
 12 40  1  0
 13 41  1  0
 13 42  1  0
 14 43  1  1
 15 44  1  1
 16 45  1  6
 17 46  1  1
 18 47  1  0
 18 48  1  0
 21 49  1  0
 21 50  1  0
 21 51  1  0
 22 52  1  0
 22 53  1  0
 23 54  1  1
M  END
$$$$
