
     RDKit          2D

 98103  0  0  0  0  0  0  0  0999 V2000
   -1.3565    5.5188    0.0000 C   0  0  0  0  0  0  0  0  0  0  0  0
   -1.6170    4.0416    0.0000 C   0  0  0  0  0  0  0  0  0  0  0  0
   -0.4679    3.0774    0.0000 C   0  0  0  0  0  0  0  0  0  0  0  0
    0.6811    2.1132    0.0000 C   0  0  0  0  0  0  0  0  0  0  0  0
    1.8302    1.1491    0.0000 C   0  0  0  0  0  0  0  0  0  0  0  0
    2.9793    0.1849    0.0000 C   0  0  0  0  0  0  0  0  0  0  0  0
    4.1283   -0.7793    0.0000 C   0  0  0  0  0  0  0  0  0  0  0  0
    5.0518   -1.9613    0.0000 C   0  0  0  0  0  0  0  0  0  0  0  0
    6.4614   -1.4483    0.0000 C   0  0  0  0  0  0  0  0  0  0  0  0
    6.8243   -2.9037    0.0000 C   0  0  0  0  0  0  0  0  0  0  0  0
    7.1871   -4.3592    0.0000 C   0  0  0  0  0  0  0  0  0  0  0  0
    5.8168   -4.9693    0.0000 C   0  0  0  0  0  0  0  0  0  0  0  0
    8.0259   -5.6027    0.0000 N   0  0  0  0  0  0  0  0  0  0  0  0
    8.6835   -4.2545    0.0000 C   0  0  0  0  0  0  0  0  0  0  0  0
   10.1254   -4.6680    0.0000 F   0  0  0  0  0  0  0  0  0  0  0  0
    6.4090    0.0508    0.0000 C   0  0  0  0  0  0  0  0  0  0  0  0
    6.6695    1.5280    0.0000 F   0  0  0  0  0  0  0  0  0  0  0  0
    7.9054   -0.0538    0.0000 C   0  0  0  0  0  0  0  0  0  0  0  0
    8.0100    1.4425    0.0000 F   0  0  0  0  0  0  0  0  0  0  0  0
    9.4017   -0.1585    0.0000 C   0  0  0  0  0  0  0  0  0  0  0  0
   10.8981   -0.2631    0.0000 F   0  0  0  0  0  0  0  0  0  0  0  0
    4.9671    0.4643    0.0000 C   0  0  0  0  0  0  0  0  0  0  0  0
    5.5290    1.8550    0.0000 O   0  0  0  0  0  0  0  0  0  0  0  0
    3.6427    1.1685    0.0000 O   0  0  0  0  0  0  0  0  0  0  0  0
    0.8660    0.0000    0.0000 C   0  0  0  0  0  0  0  0  0  0  0  0
   -0.4330    0.7500    0.0000 C   0  0  0  0  0  0  0  0  0  0  0  0
   -1.7321    0.0000    0.0000 C   0  0  0  0  0  0  0  0  0  0  0  0
   -2.8468   -1.0037    0.0000 C   0  0  0  0  0  0  0  0  0  0  0  0
   -4.3386   -0.8469    0.0000 O   0  0  0  0  0  0  0  0  0  0  0  0
   -5.2202   -2.0604    0.0000 C   0  0  0  0  0  0  0  0  0  0  0  0
   -6.4638   -2.8992    0.0000 C   0  0  0  0  0  0  0  0  0  0  0  0
   -7.7073   -3.7380    0.0000 N   0  0  0  0  0  0  0  0  0  0  0  0
   -9.0555   -3.0805    0.0000 C   0  0  0  0  0  0  0  0  0  0  0  0
  -10.4037   -2.4229    0.0000 C   0  0  0  0  0  0  0  0  0  0  0  0
   -4.6101   -3.4307    0.0000 C   0  0  0  0  0  0  0  0  0  0  0  0
   -3.1183   -3.5875    0.0000 C   0  0  0  0  0  0  0  0  0  0  0  0
   -1.7701   -4.2451    0.0000 C   0  0  0  0  0  0  0  0  0  0  0  0
   -1.1126   -2.8969    0.0000 C   0  0  0  0  0  0  0  0  0  0  0  0
   -0.4220   -4.9027    0.0000 C   0  0  0  0  0  0  0  0  0  0  0  0
   -0.3173   -6.3990    0.0000 C   0  0  0  0  0  0  0  0  0  0  0  0
   -2.2367   -2.3740    0.0000 C   0  0  0  0  0  0  0  0  0  0  0  0
   -1.4867   -3.6731    0.0000 C   0  0  0  0  0  0  0  0  0  0  0  0
   -0.7449   -2.2172    0.0000 C   0  0  0  0  0  0  0  0  0  0  0  0
   -0.4330   -0.7500    0.0000 C   0  0  0  0  0  0  0  0  0  0  0  0
   -2.5056    6.4830    0.0000 H   0  0  0  0  0  0  0  0  0  0  0  0
    0.0530    6.0319    0.0000 H   0  0  0  0  0  0  0  0  0  0  0  0
   -3.0265    3.5286    0.0000 H   0  0  0  0  0  0  0  0  0  0  0  0
   -1.4321    1.9284    0.0000 H   0  0  0  0  0  0  0  0  0  0  0  0
    0.4963    4.2265    0.0000 H   0  0  0  0  0  0  0  0  0  0  0  0
   -0.5324    1.2316    0.0000 H   0  0  0  0  0  0  0  0  0  0  0  0
    1.6453    3.2623    0.0000 H   0  0  0  0  0  0  0  0  0  0  0  0
    2.6471    2.4071    0.0000 H   0  0  0  0  0  0  0  0  0  0  0  0
    3.6368    1.5331    0.0000 H   0  0  0  0  0  0  0  0  0  0  0  0
    2.1623   -1.0731    0.0000 H   0  0  0  0  0  0  0  0  0  0  0  0
    3.0493   -1.8213    0.0000 H   0  0  0  0  0  0  0  0  0  0  0  0
    3.7798   -2.7562    0.0000 H   0  0  0  0  0  0  0  0  0  0  0  0
    5.3636   -3.4286    0.0000 H   0  0  0  0  0  0  0  0  0  0  0  0
    7.9611   -1.4221    0.0000 H   0  0  0  0  0  0  0  0  0  0  0  0
    8.2246   -2.3661    0.0000 H   0  0  0  0  0  0  0  0  0  0  0  0
    5.3688   -3.2666    0.0000 H   0  0  0  0  0  0  0  0  0  0  0  0
    4.4465   -5.5794    0.0000 H   0  0  0  0  0  0  0  0  0  0  0  0
    6.4269   -6.3396    0.0000 H   0  0  0  0  0  0  0  0  0  0  0  0
    4.8933   -3.7873    0.0000 H   0  0  0  0  0  0  0  0  0  0  0  0
    8.1306   -7.0991    0.0000 H   0  0  0  0  0  0  0  0  0  0  0  0
    9.0209   -2.7930    0.0000 H   0  0  0  0  0  0  0  0  0  0  0  0
    7.9839   -1.5518    0.0000 H   0  0  0  0  0  0  0  0  0  0  0  0
    9.5063    1.3379    0.0000 H   0  0  0  0  0  0  0  0  0  0  0  0
    9.2971   -1.6548    0.0000 H   0  0  0  0  0  0  0  0  0  0  0  0
    4.6055    3.0371    0.0000 H   0  0  0  0  0  0  0  0  0  0  0  0
    3.7735    2.6628    0.0000 H   0  0  0  0  0  0  0  0  0  0  0  0
    1.6830   -1.2580    0.0000 H   0  0  0  0  0  0  0  0  0  0  0  0
   -0.4330    2.2500    0.0000 H   0  0  0  0  0  0  0  0  0  0  0  0
   -2.6137    1.2135    0.0000 H   0  0  0  0  0  0  0  0  0  0  0  0
   -3.3103    0.4229    0.0000 H   0  0  0  0  0  0  0  0  0  0  0  0
   -6.2622   -0.9814    0.0000 H   0  0  0  0  0  0  0  0  0  0  0  0
   -7.3026   -1.6557    0.0000 H   0  0  0  0  0  0  0  0  0  0  0  0
   -5.7828   -4.2357    0.0000 H   0  0  0  0  0  0  0  0  0  0  0  0
   -7.6027   -5.2344    0.0000 H   0  0  0  0  0  0  0  0  0  0  0  0
   -8.3980   -1.7323    0.0000 H   0  0  0  0  0  0  0  0  0  0  0  0
   -9.7131   -4.4286    0.0000 H   0  0  0  0  0  0  0  0  0  0  0  0
  -11.7519   -1.7653    0.0000 H   0  0  0  0  0  0  0  0  0  0  0  0
   -9.7462   -1.0747    0.0000 H   0  0  0  0  0  0  0  0  0  0  0  0
  -11.0613   -3.7711    0.0000 H   0  0  0  0  0  0  0  0  0  0  0  0
   -4.5055   -4.9271    0.0000 H   0  0  0  0  0  0  0  0  0  0  0  0
   -6.0105   -3.9683    0.0000 H   0  0  0  0  0  0  0  0  0  0  0  0
   -3.5318   -5.0294    0.0000 H   0  0  0  0  0  0  0  0  0  0  0  0
   -2.4277   -5.5933    0.0000 H   0  0  0  0  0  0  0  0  0  0  0  0
   -0.1483   -1.7479    0.0000 H   0  0  0  0  0  0  0  0  0  0  0  0
    0.3546   -3.2087    0.0000 H   0  0  0  0  0  0  0  0  0  0  0  0
   -2.2616   -1.9327    0.0000 H   0  0  0  0  0  0  0  0  0  0  0  0
    0.9146   -4.2217    0.0000 H   0  0  0  0  0  0  0  0  0  0  0  0
    1.0309   -7.0566    0.0000 H   0  0  0  0  0  0  0  0  0  0  0  0
   -1.5609   -7.2378    0.0000 H   0  0  0  0  0  0  0  0  0  0  0  0
   -0.4446   -4.7520    0.0000 H   0  0  0  0  0  0  0  0  0  0  0  0
   -0.1059   -3.0870    0.0000 H   0  0  0  0  0  0  0  0  0  0  0  0
   -2.7857   -4.4231    0.0000 H   0  0  0  0  0  0  0  0  0  0  0  0
   -0.3819   -3.6726    0.0000 H   0  0  0  0  0  0  0  0  0  0  0  0
    0.7469   -2.3740    0.0000 H   0  0  0  0  0  0  0  0  0  0  0  0
  1  2  2  3
  2  3  1  0
  3  4  1  0
  4  5  1  0
  5  6  1  0
  6  7  1  0
  7  8  1  0
  8  9  1  0
  9 10  1  0
 10 11  1  0
 11 12  1  0
 11 13  1  0
 13 14  1  0
 14 15  1  0
  9 16  1  0
 16 17  1  0
 16 18  1  0
 18 19  1  0
 18 20  1  0
 20 21  1  0
 16 22  1  0
 22 23  1  0
 22 24  1  0
  5 25  1  0
 25 26  1  0
 26 27  1  0
 27 28  1  0
 28 29  1  0
 29 30  1  0
 30 31  1  0
 31 32  1  0
 32 33  1  0
 33 34  1  0
 30 35  1  0
 35 36  1  0
 36 37  1  0
 37 38  1  0
 37 39  1  0
 39 40  2  3
 36 41  1  0
 41 42  1  0
 41 43  1  0
 43 44  1  0
 22  7  1  0
 44 25  1  0
 14 11  1  0
 44 26  1  0
 44 27  1  0
 41 28  1  0
  1 45  1  0
  1 46  1  0
  2 47  1  0
  3 48  1  0
  3 49  1  0
  4 50  1  0
  4 51  1  0
  5 52  1  0
  6 53  1  0
  6 54  1  0
  7 55  1  0
  8 56  1  0
  8 57  1  0
  9 58  1  0
 10 59  1  0
 10 60  1  0
 12 61  1  0
 12 62  1  0
 12 63  1  0
 13 64  1  0
 14 65  1  0
 18 66  1  0
 20 67  1  0
 20 68  1  0
 23 69  1  0
 24 70  1  0
 25 71  1  0
 26 72  1  0
 27 73  1  0
 28 74  1  0
 30 75  1  0
 31 76  1  0
 31 77  1  0
 32 78  1  0
 33 79  1  0
 33 80  1  0
 34 81  1  0
 34 82  1  0
 34 83  1  0
 35 84  1  0
 35 85  1  0
 36 86  1  0
 37 87  1  0
 38 88  1  0
 38 89  1  0
 38 90  1  0
 39 91  1  0
 40 92  1  0
 40 93  1  0
 42 94  1  0
 42 95  1  0
 42 96  1  0
 43 97  1  0
 43 98  1  0
M  END
$$$$
