
     RDKit          2D

 27 28  0  0  0  0  0  0  0  0999 V2000
    3.6758    2.8515    0.0000 O   0  0  0  0  0  0  0  0  0  0  0  0
    2.3768    3.6015    0.0000 C   0  0  0  0  0  0  0  0  0  0  0  0
    2.3768    5.1015    0.0000 C   0  0  0  0  0  0  0  0  0  0  0  0
    1.0777    5.8515    0.0000 C   0  0  0  0  0  0  0  0  0  0  0  0
   -0.2213    5.1015    0.0000 C   0  0  0  0  0  0  0  0  0  0  0  0
   -0.2213    3.6015    0.0000 C   0  0  0  0  0  0  0  0  0  0  0  0
    1.0777    2.8515    0.0000 C   0  0  0  0  0  0  0  0  0  0  0  0
    1.0777    1.3515    0.0000 C   0  0  0  0  0  0  0  0  0  0  0  0
    1.7286    0.0000    0.0000 C   0  0  0  0  0  0  0  0  0  0  0  0
    1.0777   -1.3515    0.0000 C   0  0  0  0  0  0  0  0  0  0  0  0
   -0.3846   -1.6852    0.0000 C   0  0  0  0  0  0  0  0  0  0  0  0
   -1.5574   -0.7500    0.0000 C   0  0  0  0  0  0  0  0  0  0  0  0
   -1.5574    0.7500    0.0000 C   0  0  0  0  0  0  0  0  0  0  0  0
   -0.3846    1.6852    0.0000 N   0  0  0  0  0  0  0  0  0  0  0  0
    4.9749    3.6015    0.0000 H   0  0  0  0  0  0  0  0  0  0  0  0
    3.6758    5.8515    0.0000 H   0  0  0  0  0  0  0  0  0  0  0  0
    1.0777    7.3515    0.0000 H   0  0  0  0  0  0  0  0  0  0  0  0
   -1.5203    5.8515    0.0000 H   0  0  0  0  0  0  0  0  0  0  0  0
   -1.0366    3.2554    0.0000 H   0  0  0  0  0  0  0  0  0  0  0  0
    2.5401    1.6852    0.0000 H   0  0  0  0  0  0  0  0  0  0  0  0
    3.2286   -0.0000    0.0000 H   0  0  0  0  0  0  0  0  0  0  0  0
    2.0130   -2.5242    0.0000 H   0  0  0  0  0  0  0  0  0  0  0  0
   -0.7184   -3.1476    0.0000 H   0  0  0  0  0  0  0  0  0  0  0  0
   -2.9088   -1.4008    0.0000 H   0  0  0  0  0  0  0  0  0  0  0  0
   -3.0198    0.4162    0.0000 H   0  0  0  0  0  0  0  0  0  0  0  0
   -2.2082    2.1015    0.0000 H   0  0  0  0  0  0  0  0  0  0  0  0
   -0.8288    2.3472    0.0000 H   0  0  0  0  0  0  0  0  0  0  0  0
  1  2  1  0
  2  3  2  0
  3  4  1  0
  4  5  2  0
  5  6  1  0
  6  7  2  0
  7  8  1  0
  8  9  1  0
  9 10  2  0
 10 11  1  0
 11 12  2  0
 12 13  1  0
 13 14  1  0
  7  2  1  0
 14  8  1  0
  1 15  1  0
  3 16  1  0
  4 17  1  0
  5 18  1  0
  6 19  1  0
  8 20  1  0
  9 21  1  0
 10 22  1  0
 11 23  1  0
 12 24  1  0
 13 25  1  0
 13 26  1  0
 14 27  1  0
M  END
$$$$
