
     RDKit          2D

 49 55  0  0  0  0  0  0  0  0999 V2000
    2.0952   -0.7288    0.0000 O   0  0  0  0  0  0  0  0  0  0  0  0
    1.2135   -1.9423    0.0000 C   0  0  0  0  0  0  0  0  0  0  0  0
    2.4271   -2.8240    0.0000 C   0  0  0  0  0  0  0  0  0  0  0  0
    3.6406   -3.7057    0.0000 C   0  0  0  0  0  0  0  0  0  0  0  0
    4.8541   -4.5874    0.0000 C   0  0  0  0  0  0  0  0  0  0  0  0
    4.1965   -5.9356    0.0000 C   0  0  0  0  0  0  0  0  0  0  0  0
    3.8337   -7.3910    0.0000 C   0  0  0  0  0  0  0  0  0  0  0  0
    5.1057   -8.1859    0.0000 C   0  0  0  0  0  0  0  0  0  0  0  0
    6.5153   -8.6989    0.0000 C   0  0  0  0  0  0  0  0  0  0  0  0
    6.2548   -7.2217    0.0000 C   0  0  0  0  0  0  0  0  0  0  0  0
    5.6929   -5.8309    0.0000 C   0  0  0  0  0  0  0  0  0  0  0  0
   -0.0000   -1.0607    0.0000 C   0  0  0  0  0  0  0  0  0  0  0  0
    1.0607    0.0000    0.0000 C   0  0  0  0  0  0  0  0  0  0  0  0
    0.0000    1.0607    0.0000 N   0  0  0  0  0  0  0  0  0  0  0  0
   -1.0607    0.0000    0.0000 C   0  0  0  0  0  0  0  0  0  0  0  0
   -1.7416    1.3365    0.0000 C   0  0  0  0  0  0  0  0  0  0  0  0
   -3.0782    0.6555    0.0000 C   0  0  0  0  0  0  0  0  0  0  0  0
   -3.4990   -1.4815    0.0000 C   0  0  0  0  0  0  0  0  0  0  0  0
   -2.1625   -2.1625    0.0000 C   0  0  0  0  0  0  0  0  0  0  0  0
   -3.2232   -3.2232    0.0000 O   0  0  0  0  0  0  0  0  0  0  0  0
   -0.6810   -2.3972    0.0000 C   0  0  0  0  0  0  0  0  0  0  0  0
   -2.3972   -0.6810    0.0000 C   0  0  0  0  0  0  0  0  0  0  0  0
    3.5950   -0.7026    0.0000 H   0  0  0  0  0  0  0  0  0  0  0  0
    0.4863   -3.2543    0.0000 H   0  0  0  0  0  0  0  0  0  0  0  0
    1.5454   -4.0375    0.0000 H   0  0  0  0  0  0  0  0  0  0  0  0
    3.4501   -1.7270    0.0000 H   0  0  0  0  0  0  0  0  0  0  0  0
    4.5223   -2.4922    0.0000 H   0  0  0  0  0  0  0  0  0  0  0  0
    2.7199   -4.6930    0.0000 H   0  0  0  0  0  0  0  0  0  0  0  0
    5.9331   -3.5454    0.0000 H   0  0  0  0  0  0  0  0  0  0  0  0
    2.8811   -5.6319    0.0000 H   0  0  0  0  0  0  0  0  0  0  0  0
    2.4241   -6.8780    0.0000 H   0  0  0  0  0  0  0  0  0  0  0  0
    3.1761   -8.7392    0.0000 H   0  0  0  0  0  0  0  0  0  0  0  0
    4.4482   -9.5341    0.0000 H   0  0  0  0  0  0  0  0  0  0  0  0
    6.2548  -10.1761    0.0000 H   0  0  0  0  0  0  0  0  0  0  0  0
    8.0153   -8.6989    0.0000 H   0  0  0  0  0  0  0  0  0  0  0  0
    7.6967   -6.8082    0.0000 H   0  0  0  0  0  0  0  0  0  0  0  0
    7.0173   -5.1267    0.0000 H   0  0  0  0  0  0  0  0  0  0  0  0
    2.1213    1.0607    0.0000 H   0  0  0  0  0  0  0  0  0  0  0  0
    1.7440   -0.4105    0.0000 H   0  0  0  0  0  0  0  0  0  0  0  0
    0.1828    2.5495    0.0000 H   0  0  0  0  0  0  0  0  0  0  0  0
   -2.4226    2.6730    0.0000 H   0  0  0  0  0  0  0  0  0  0  0  0
   -0.4981    2.1753    0.0000 H   0  0  0  0  0  0  0  0  0  0  0  0
   -4.5047    1.1190    0.0000 H   0  0  0  0  0  0  0  0  0  0  0  0
   -4.1800   -2.8180    0.0000 H   0  0  0  0  0  0  0  0  0  0  0  0
   -4.8355   -0.8005    0.0000 H   0  0  0  0  0  0  0  0  0  0  0  0
   -2.8349   -4.6721    0.0000 H   0  0  0  0  0  0  0  0  0  0  0  0
   -1.0692   -3.8461    0.0000 H   0  0  0  0  0  0  0  0  0  0  0  0
    0.6434   -3.1014    0.0000 H   0  0  0  0  0  0  0  0  0  0  0  0
   -3.6692   -1.4759    0.0000 H   0  0  0  0  0  0  0  0  0  0  0  0
  1  2  1  0
  2  3  1  0
  3  4  1  0
  4  5  1  0
  5  6  1  0
  6  7  1  0
  7  8  1  0
  8  9  1  0
  9 10  1  0
 10 11  1  0
  2 12  1  0
 12 13  1  0
 13 14  1  0
 14 15  1  0
 15 16  1  0
 16 17  1  0
 17 18  1  0
 18 19  1  0
 19 20  1  0
 19 21  1  0
 19 22  1  0
 11  5  1  0
 15 12  1  0
 22 17  1  0
 11  6  1  0
 21 12  1  0
 10  8  1  0
 22 15  1  0
  1 23  1  0
  2 24  1  0
  3 25  1  0
  3 26  1  0
  4 27  1  0
  4 28  1  0
  5 29  1  0
  6 30  1  0
  7 31  1  0
  7 32  1  0
  8 33  1  0
  9 34  1  0
  9 35  1  0
 10 36  1  0
 11 37  1  0
 13 38  1  0
 13 39  1  0
 14 40  1  0
 16 41  1  0
 16 42  1  0
 17 43  1  0
 18 44  1  0
 18 45  1  0
 20 46  1  0
 21 47  1  0
 21 48  1  0
 22 49  1  0
M  END
$$$$
