
     RDKit          2D

 47 50  0  0  0  0  0  0  0  0999 V2000
   -2.7764    2.4674    0.0000 C   0  0  0  0  0  0  0  0  0  0  0  0
   -3.0369    3.9446    0.0000 C   0  0  0  0  0  0  0  0  0  0  0  0
   -1.8878    4.9088    0.0000 C   0  0  0  0  0  0  0  0  0  0  0  0
   -4.4464    4.4577    0.0000 C   0  0  0  0  0  0  0  0  0  0  0  0
   -5.8560    4.9707    0.0000 C   0  0  0  0  0  0  0  0  0  0  0  0
   -7.2655    5.4837    0.0000 C   0  0  0  0  0  0  0  0  0  0  0  0
   -8.4146    6.4479    0.0000 C   0  0  0  0  0  0  0  0  0  0  0  0
   -7.0050    6.9609    0.0000 C   0  0  0  0  0  0  0  0  0  0  0  0
   -4.9595    3.0481    0.0000 C   0  0  0  0  0  0  0  0  0  0  0  0
   -4.9595    1.5481    0.0000 C   0  0  0  0  0  0  0  0  0  0  0  0
   -3.6604    2.2981    0.0000 C   0  0  0  0  0  0  0  0  0  0  0  0
   -2.6962    1.1491    0.0000 C   0  0  0  0  0  0  0  0  0  0  0  0
   -1.7321    0.0000    0.0000 C   0  0  0  0  0  0  0  0  0  0  0  0
   -0.4330    0.7500    0.0000 C   0  0  0  0  0  0  0  0  0  0  0  0
    0.8660    0.0000    0.0000 C   0  0  0  0  0  0  0  0  0  0  0  0
    1.8302    1.1491    0.0000 C   0  0  0  0  0  0  0  0  0  0  0  0
    2.7944    2.2981    0.0000 C   0  0  0  0  0  0  0  0  0  0  0  0
   -0.4330   -0.7500    0.0000 C   0  0  0  0  0  0  0  0  0  0  0  0
   -0.4330   -2.2500    0.0000 O   0  0  0  0  0  0  0  0  0  0  0  0
   -1.3148    2.1300    0.0000 H   0  0  0  0  0  0  0  0  0  0  0  0
   -3.9255    1.5032    0.0000 H   0  0  0  0  0  0  0  0  0  0  0  0
   -0.7387    5.8730    0.0000 H   0  0  0  0  0  0  0  0  0  0  0  0
   -0.9236    3.7598    0.0000 H   0  0  0  0  0  0  0  0  0  0  0  0
   -2.8520    6.0579    0.0000 H   0  0  0  0  0  0  0  0  0  0  0  0
   -3.9334    5.8672    0.0000 H   0  0  0  0  0  0  0  0  0  0  0  0
   -5.2430    6.1735    0.0000 H   0  0  0  0  0  0  0  0  0  0  0  0
   -6.3524    3.9964    0.0000 H   0  0  0  0  0  0  0  0  0  0  0  0
   -8.0155    4.1847    0.0000 H   0  0  0  0  0  0  0  0  0  0  0  0
   -9.5636    5.4837    0.0000 H   0  0  0  0  0  0  0  0  0  0  0  0
   -9.1646    7.7470    0.0000 H   0  0  0  0  0  0  0  0  0  0  0  0
   -7.2655    8.4382    0.0000 H   0  0  0  0  0  0  0  0  0  0  0  0
   -5.6651    7.1255    0.0000 H   0  0  0  0  0  0  0  0  0  0  0  0
   -6.0515    3.1053    0.0000 H   0  0  0  0  0  0  0  0  0  0  0  0
   -6.4367    1.2877    0.0000 H   0  0  0  0  0  0  0  0  0  0  0  0
   -4.6221    0.0866    0.0000 H   0  0  0  0  0  0  0  0  0  0  0  0
   -3.0155    2.7667    0.0000 H   0  0  0  0  0  0  0  0  0  0  0  0
   -1.4382    1.9660    0.0000 H   0  0  0  0  0  0  0  0  0  0  0  0
   -3.7192    0.0520    0.0000 H   0  0  0  0  0  0  0  0  0  0  0  0
   -2.6962   -1.1491    0.0000 H   0  0  0  0  0  0  0  0  0  0  0  0
   -0.4330    2.2500    0.0000 H   0  0  0  0  0  0  0  0  0  0  0  0
    1.8302   -1.1491    0.0000 H   0  0  0  0  0  0  0  0  0  0  0  0
    2.9793    0.1849    0.0000 H   0  0  0  0  0  0  0  0  0  0  0  0
    0.6811    2.1132    0.0000 H   0  0  0  0  0  0  0  0  0  0  0  0
    3.7586    3.4472    0.0000 H   0  0  0  0  0  0  0  0  0  0  0  0
    3.9435    1.3340    0.0000 H   0  0  0  0  0  0  0  0  0  0  0  0
    1.6453    3.2623    0.0000 H   0  0  0  0  0  0  0  0  0  0  0  0
   -1.7321   -3.0000    0.0000 H   0  0  0  0  0  0  0  0  0  0  0  0
  1  2  2  3
  2  3  1  0
  2  4  1  0
  4  5  1  0
  5  6  1  0
  6  7  1  0
  7  8  1  0
  4  9  1  0
  9 10  1  0
 10 11  1  0
 11 12  1  0
 12 13  1  0
 13 14  1  0
 14 15  1  0
 15 16  1  0
 16 17  1  0
 15 18  1  0
 18 19  1  0
  8  6  1  0
 11  9  1  0
 18 13  1  0
 18 14  1  0
  1 20  1  0
  1 21  1  0
  3 22  1  0
  3 23  1  0
  3 24  1  0
  4 25  1  0
  5 26  1  0
  5 27  1  0
  6 28  1  0
  7 29  1  0
  7 30  1  0
  8 31  1  0
  8 32  1  0
  9 33  1  0
 10 34  1  0
 10 35  1  0
 11 36  1  0
 12 37  1  0
 12 38  1  0
 13 39  1  0
 14 40  1  0
 15 41  1  0
 16 42  1  0
 16 43  1  0
 17 44  1  0
 17 45  1  0
 17 46  1  0
 19 47  1  0
M  END
$$$$
