
     RDKit          2D

 96110  0  0  0  0  0  0  0  0999 V2000
    1.0525   -0.3601    0.0000 C   0  0  0  0  0  0  0  0  0  0  0  0
   -0.4198   -0.0736    0.0000 C   0  0  0  0  0  0  0  0  0  0  0  0
   -1.8922    0.2128    0.0000 C   0  0  0  0  0  0  0  0  0  0  0  0
   -5.0704   -0.6508    0.0000 C   0  0  0  0  0  0  0  0  0  0  0  0
   -4.4196   -2.0023    0.0000 C   0  0  0  0  0  0  0  0  0  0  0  0
   -3.0682   -1.3515    0.0000 C   0  0  0  0  0  0  0  0  0  0  0  0
   -2.9002   -2.8420    0.0000 C   0  0  0  0  0  0  0  0  0  0  0  0
   -2.2326   -4.1853    0.0000 C   0  0  0  0  0  0  0  0  0  0  0  0
   -3.4395   -5.0760    0.0000 O   0  0  0  0  0  0  0  0  0  0  0  0
   -1.4031   -2.9355    0.0000 C   0  0  0  0  0  0  0  0  0  0  0  0
   -1.0511   -1.4773    0.0000 O   0  0  0  0  0  0  0  0  0  0  0  0
   -0.0283   -3.5353    0.0000 C   0  0  0  0  0  0  0  0  0  0  0  0
    1.3466   -4.1351    0.0000 C   0  0  0  0  0  0  0  0  0  0  0  0
   -3.7190    0.0000    0.0000 C   0  0  0  0  0  0  0  0  0  0  0  0
   -3.0682    1.3515    0.0000 C   0  0  0  0  0  0  0  0  0  0  0  0
   -3.0782    1.9717    0.0000 C   0  0  0  0  0  0  0  0  0  0  0  0
   -1.6058    1.6852    0.0000 C   0  0  0  0  0  0  0  0  0  0  0  0
   -0.4330    0.7500    0.0000 C   0  0  0  0  0  0  0  0  0  0  0  0
    0.8660    0.0000    0.0000 C   0  0  0  0  0  0  0  0  0  0  0  0
    1.8302   -1.1491    0.0000 N   0  0  0  0  0  0  0  0  0  0  0  0
    3.3074   -0.8886    0.0000 N   0  0  0  0  0  0  0  0  0  0  0  0
    4.1678    0.3401    0.0000 O   0  0  0  0  0  0  0  0  0  0  0  0
    5.3965   -0.5202    0.0000 C   0  0  0  0  0  0  0  0  0  0  0  0
    6.8310   -0.9588    0.0000 C   0  0  0  0  0  0  0  0  0  0  0  0
    6.8571   -2.4586    0.0000 C   0  0  0  0  0  0  0  0  0  0  0  0
    5.4389   -2.9469    0.0000 O   0  0  0  0  0  0  0  0  0  0  0  0
    4.5361   -1.7490    0.0000 C   0  0  0  0  0  0  0  0  0  0  0  0
    1.8302    1.1491    0.0000 C   0  0  0  0  0  0  0  0  0  0  0  0
    2.7944    2.2981    0.0000 C   0  0  0  0  0  0  0  0  0  0  0  0
    2.9793    0.1849    0.0000 C   0  0  0  0  0  0  0  0  0  0  0  0
   -0.4330   -0.7500    0.0000 C   0  0  0  0  0  0  0  0  0  0  0  0
   -0.2094   -2.2332    0.0000 C   0  0  0  0  0  0  0  0  0  0  0  0
    1.2901   -2.2706    0.0000 C   0  0  0  0  0  0  0  0  0  0  0  0
    1.6421   -3.7288    0.0000 C   0  0  0  0  0  0  0  0  0  0  0  0
    3.1002   -3.3768    0.0000 C   0  0  0  0  0  0  0  0  0  0  0  0
    2.7482   -1.9187    0.0000 C   0  0  0  0  0  0  0  0  0  0  0  0
    1.7143   -0.8319    0.0000 C   0  0  0  0  0  0  0  0  0  0  0  0
    0.3711   -0.1643    0.0000 N   0  0  0  0  0  0  0  0  0  0  0  0
   -0.1067    1.2576    0.0000 C   0  0  0  0  0  0  0  0  0  0  0  0
   -0.5844    2.6795    0.0000 C   0  0  0  0  0  0  0  0  0  0  0  0
   -2.0063    2.2018    0.0000 C   0  0  0  0  0  0  0  0  0  0  0  0
   -1.5285    0.7799    0.0000 C   0  0  0  0  0  0  0  0  0  0  0  0
   -2.5211   -0.3448    0.0000 C   0  0  0  0  0  0  0  0  0  0  0  0
   -1.0508   -0.6420    0.0000 C   0  0  0  0  0  0  0  0  0  0  0  0
   -1.6058   -1.6852    0.0000 C   0  0  0  0  0  0  0  0  0  0  0  0
    2.5249   -0.6466    0.0000 H   0  0  0  0  0  0  0  0  0  0  0  0
    1.8478    0.9118    0.0000 H   0  0  0  0  0  0  0  0  0  0  0  0
    1.3129   -1.8373    0.0000 H   0  0  0  0  0  0  0  0  0  0  0  0
   -0.1595   -1.5509    0.0000 H   0  0  0  0  0  0  0  0  0  0  0  0
    0.0440    1.3529    0.0000 H   0  0  0  0  0  0  0  0  0  0  0  0
   -2.6874   -1.0590    0.0000 H   0  0  0  0  0  0  0  0  0  0  0  0
   -3.9384   -3.4230    0.0000 H   0  0  0  0  0  0  0  0  0  0  0  0
   -5.7711   -2.6531    0.0000 H   0  0  0  0  0  0  0  0  0  0  0  0
   -4.2765   -3.4385    0.0000 H   0  0  0  0  0  0  0  0  0  0  0  0
   -1.2799   -5.3439    0.0000 H   0  0  0  0  0  0  0  0  0  0  0  0
   -3.2715   -6.5666    0.0000 H   0  0  0  0  0  0  0  0  0  0  0  0
   -2.2558   -0.5836    0.0000 H   0  0  0  0  0  0  0  0  0  0  0  0
   -0.4561   -4.9730    0.0000 H   0  0  0  0  0  0  0  0  0  0  0  0
    1.3375   -2.9152    0.0000 H   0  0  0  0  0  0  0  0  0  0  0  0
    2.5354   -5.0498    0.0000 H   0  0  0  0  0  0  0  0  0  0  0  0
    0.7467   -5.5100    0.0000 H   0  0  0  0  0  0  0  0  0  0  0  0
    2.1095   -2.8437    0.0000 H   0  0  0  0  0  0  0  0  0  0  0  0
   -4.7796    1.0607    0.0000 H   0  0  0  0  0  0  0  0  0  0  0  0
   -4.0034    2.5242    0.0000 H   0  0  0  0  0  0  0  0  0  0  0  0
   -3.5238    5.2349    0.0000 H   0  0  0  0  0  0  0  0  0  0  0  0
    0.0870    2.1570    0.0000 H   0  0  0  0  0  0  0  0  0  0  0  0
    2.0391   -2.6344    0.0000 H   0  0  0  0  0  0  0  0  0  0  0  0
    6.0541    0.8280    0.0000 H   0  0  0  0  0  0  0  0  0  0  0  0
    7.1172    0.5137    0.0000 H   0  0  0  0  0  0  0  0  0  0  0  0
    8.3253   -1.0895    0.0000 H   0  0  0  0  0  0  0  0  0  0  0  0
    8.3460   -2.2758    0.0000 H   0  0  0  0  0  0  0  0  0  0  0  0
    7.1946   -3.9201    0.0000 H   0  0  0  0  0  0  0  0  0  0  0  0
    3.7862   -3.0480    0.0000 H   0  0  0  0  0  0  0  0  0  0  0  0
    0.9486    2.3626    0.0000 H   0  0  0  0  0  0  0  0  0  0  0  0
    3.7586    3.4472    0.0000 H   0  0  0  0  0  0  0  0  0  0  0  0
    4.1426    1.6406    0.0000 H   0  0  0  0  0  0  0  0  0  0  0  0
    1.7714    3.3952    0.0000 H   0  0  0  0  0  0  0  0  0  0  0  0
    4.3976   -0.3034    0.0000 H   0  0  0  0  0  0  0  0  0  0  0  0
    4.1928    1.0665    0.0000 H   0  0  0  0  0  0  0  0  0  0  0  0
    3.9435    1.3340    0.0000 H   0  0  0  0  0  0  0  0  0  0  0  0
   -0.3252   -3.7288    0.0000 H   0  0  0  0  0  0  0  0  0  0  0  0
    2.1692   -5.1331    0.0000 H   0  0  0  0  0  0  0  0  0  0  0  0
    0.4070   -4.5800    0.0000 H   0  0  0  0  0  0  0  0  0  0  0  0
    4.6001   -3.3881    0.0000 H   0  0  0  0  0  0  0  0  0  0  0  0
    3.6273   -4.7811    0.0000 H   0  0  0  0  0  0  0  0  0  0  0  0
    4.2387   -2.0868    0.0000 H   0  0  0  0  0  0  0  0  0  0  0  0
    2.8706    0.1236    0.0000 H   0  0  0  0  0  0  0  0  0  0  0  0
    0.9244    2.3471    0.0000 H   0  0  0  0  0  0  0  0  0  0  0  0
   -1.0621    4.1014    0.0000 H   0  0  0  0  0  0  0  0  0  0  0  0
    0.7687    3.3270    0.0000 H   0  0  0  0  0  0  0  0  0  0  0  0
   -3.4860    2.4477    0.0000 H   0  0  0  0  0  0  0  0  0  0  0  0
   -2.4840    3.6237    0.0000 H   0  0  0  0  0  0  0  0  0  0  0  0
   -3.5737    0.7239    0.0000 H   0  0  0  0  0  0  0  0  0  0  0  0
   -3.3907   -1.5670    0.0000 H   0  0  0  0  0  0  0  0  0  0  0  0
   -1.5002   -2.0731    0.0000 H   0  0  0  0  0  0  0  0  0  0  0  0
   -1.6879   -3.1830    0.0000 H   0  0  0  0  0  0  0  0  0  0  0  0
  1  2  1  0
  2  3  1  0
  3  4  1  0
  4  5  1  0
  5  6  1  0
  6  7  1  0
  7  8  1  0
  8  9  1  0
  8 10  1  0
 10 11  1  0
 10 12  1  0
 12 13  1  0
  6 14  1  0
 14 15  1  0
 15 16  1  0
 16 17  1  0
 17 18  1  0
 18 19  1  0
 19 20  1  0
 20 21  1  0
 21 22  1  0
 22 23  1  0
 23 24  1  0
 24 25  1  0
 25 26  1  0
 26 27  1  0
 19 28  1  0
 28 29  1  0
 28 30  1  0
 19 31  1  0
 31 32  1  0
 32 33  1  0
 33 34  1  0
 34 35  1  0
 35 36  1  0
 36 37  1  0
 37 38  1  0
 38 39  1  0
 39 40  1  0
 40 41  1  0
 41 42  1  0
 42 43  1  0
 43 44  1  0
 32 45  1  0
 17  3  1  0
 31 18  1  0
 36 33  1  0
 44 38  1  0
 14  4  1  0
 17 15  1  0
 27 21  1  0
 45 31  1  0
 16  4  1  0
 27 23  1  0
 37 33  1  0
 42 39  1  0
 45  6  1  0
 10  7  1  0
 44 42  1  0
  1 46  1  0
  1 47  1  0
  1 48  1  0
  2 49  1  0
  2 50  1  0
  3 51  1  0
  5 52  1  0
  5 53  1  0
  7 54  1  0
  8 55  1  0
  9 56  1  0
 11 57  1  0
 12 58  1  0
 12 59  1  0
 13 60  1  0
 13 61  1  0
 13 62  1  0
 14 63  1  0
 15 64  1  0
 16 65  1  0
 18 66  1  0
 20 67  1  0
 23 68  1  0
 24 69  1  0
 24 70  1  0
 25 71  1  0
 25 72  1  0
 27 73  1  0
 28 74  1  0
 29 75  1  0
 29 76  1  0
 29 77  1  0
 30 78  1  0
 30 79  1  0
 30 80  1  0
 32 81  1  0
 34 82  1  0
 34 83  1  0
 35 84  1  0
 35 85  1  0
 36 86  1  0
 37 87  1  0
 39 88  1  0
 40 89  1  0
 40 90  1  0
 41 91  1  0
 41 92  1  0
 43 93  1  0
 43 94  1  0
 44 95  1  0
 45 96  1  0
M  END
$$$$
