
     RDKit          2D

 33 36  0  0  0  0  0  0  0  0999 V2000
    0.1199   -4.7060    0.0000 C   0  0  0  0  0  0  0  0  0  0  0  0
   -1.3146   -5.1446    0.0000 C   0  0  0  0  0  0  0  0  0  0  0  0
   -1.9956   -3.8080    0.0000 C   0  0  0  0  0  0  0  0  0  0  0  0
   -1.1786   -2.5500    0.0000 C   0  0  0  0  0  0  0  0  0  0  0  0
   -1.8596   -1.2135    0.0000 C   0  0  0  0  0  0  0  0  0  0  0  0
   -3.0731   -2.0952    0.0000 C   0  0  0  0  0  0  0  0  0  0  0  0
   -3.9548   -0.8817    0.0000 C   0  0  0  0  0  0  0  0  0  0  0  0
   -2.7413    0.0000    0.0000 C   0  0  0  0  0  0  0  0  0  0  0  0
   -1.8596    1.2135    0.0000 N   0  0  0  0  0  0  0  0  0  0  0  0
   -0.4330    0.7500    0.0000 C   0  0  0  0  0  0  0  0  0  0  0  0
    0.8660    0.0000    0.0000 C   0  0  0  0  0  0  0  0  0  0  0  0
   -0.4330   -0.7500    0.0000 C   0  0  0  0  0  0  0  0  0  0  0  0
   -1.1318   -6.6334    0.0000 C   0  0  0  0  0  0  0  0  0  0  0  0
   -2.5125   -6.0473    0.0000 C   0  0  0  0  0  0  0  0  0  0  0  0
   -3.3295   -7.3053    0.0000 F   0  0  0  0  0  0  0  0  0  0  0  0
    1.5543   -4.2674    0.0000 H   0  0  0  0  0  0  0  0  0  0  0  0
   -0.0700   -3.6291    0.0000 H   0  0  0  0  0  0  0  0  0  0  0  0
    0.6690   -5.9393    0.0000 H   0  0  0  0  0  0  0  0  0  0  0  0
   -3.4935   -3.7295    0.0000 H   0  0  0  0  0  0  0  0  0  0  0  0
   -0.2941   -2.5964    0.0000 H   0  0  0  0  0  0  0  0  0  0  0  0
   -4.2866   -2.9769    0.0000 H   0  0  0  0  0  0  0  0  0  0  0  0
   -2.6180   -3.2218    0.0000 H   0  0  0  0  0  0  0  0  0  0  0  0
   -4.8365    0.3318    0.0000 H   0  0  0  0  0  0  0  0  0  0  0  0
   -5.1683   -1.7634    0.0000 H   0  0  0  0  0  0  0  0  0  0  0  0
   -3.8019    1.0607    0.0000 H   0  0  0  0  0  0  0  0  0  0  0  0
   -2.3231    2.6401    0.0000 H   0  0  0  0  0  0  0  0  0  0  0  0
    0.1771    2.1203    0.0000 H   0  0  0  0  0  0  0  0  0  0  0  0
    1.8302    1.1491    0.0000 H   0  0  0  0  0  0  0  0  0  0  0  0
    1.8302   -1.1491    0.0000 H   0  0  0  0  0  0  0  0  0  0  0  0
    0.1928   -1.7914    0.0000 H   0  0  0  0  0  0  0  0  0  0  0  0
    0.1977   -6.8678    0.0000 H   0  0  0  0  0  0  0  0  0  0  0  0
   -1.4692   -8.0949    0.0000 H   0  0  0  0  0  0  0  0  0  0  0  0
   -3.6096   -5.0243    0.0000 H   0  0  0  0  0  0  0  0  0  0  0  0
  2  1  1  1
  2  3  1  0
  3  4  2  3
  5  4  1  1
  5  6  1  0
  6  7  1  0
  7  8  1  0
  8  9  1  0
  9 10  1  0
 10 11  1  0
 11 12  1  0
  2 13  1  0
 13 14  1  0
 14 15  1  0
 14  2  1  0
  8  5  1  0
 12 10  1  0
 12  5  1  0
  1 16  1  0
  1 17  1  0
  1 18  1  0
  3 19  1  0
  4 20  1  0
  6 21  1  0
  6 22  1  0
  7 23  1  0
  7 24  1  0
  8 25  1  1
  9 26  1  0
 10 27  1  6
 11 28  1  0
 11 29  1  0
 12 30  1  6
 13 31  1  0
 13 32  1  0
 14 33  1  1
M  END
$$$$
