
     RDKit          2D

 53 55  0  0  0  0  0  0  0  0999 V2000
   13.3242    3.0780    0.0000 C   0  0  0  0  0  0  0  0  0  0  0  0
   11.8753    3.4662    0.0000 C   0  0  0  0  0  0  0  0  0  0  0  0
   11.4871    4.9151    0.0000 C   0  0  0  0  0  0  0  0  0  0  0  0
   11.0989    6.3640    0.0000 C   0  0  0  0  0  0  0  0  0  0  0  0
   10.7106    7.8128    0.0000 O   0  0  0  0  0  0  0  0  0  0  0  0
   10.0382    4.5268    0.0000 N   0  0  0  0  0  0  0  0  0  0  0  0
    9.6500    3.0780    0.0000 C   0  0  0  0  0  0  0  0  0  0  0  0
   11.0989    2.6897    0.0000 C   0  0  0  0  0  0  0  0  0  0  0  0
    8.2011    3.4662    0.0000 C   0  0  0  0  0  0  0  0  0  0  0  0
    6.7522    3.8544    0.0000 N   0  0  0  0  0  0  0  0  0  0  0  0
    5.6915    2.7938    0.0000 C   0  0  0  0  0  0  0  0  0  0  0  0
    4.6309    1.7331    0.0000 C   0  0  0  0  0  0  0  0  0  0  0  0
    3.5702    0.6724    0.0000 N   0  0  0  0  0  0  0  0  0  0  0  0
    2.1213    1.0607    0.0000 N   0  0  0  0  0  0  0  0  0  0  0  0
    1.0607    0.0000    0.0000 C   0  0  0  0  0  0  0  0  0  0  0  0
   -0.0000   -1.0607    0.0000 O   0  0  0  0  0  0  0  0  0  0  0  0
   -1.0607    0.0000    0.0000 C   0  0  0  0  0  0  0  0  0  0  0  0
   -2.5095    0.3882    0.0000 C   0  0  0  0  0  0  0  0  0  0  0  0
   -2.8978    1.8371    0.0000 C   0  0  0  0  0  0  0  0  0  0  0  0
   -3.2860    3.2860    0.0000 N   0  0  0  0  0  0  0  0  0  0  0  0
   -1.8371    2.8978    0.0000 C   0  0  0  0  0  0  0  0  0  0  0  0
   -0.3882    2.5095    0.0000 N   0  0  0  0  0  0  0  0  0  0  0  0
    0.0000    1.0607    0.0000 C   0  0  0  0  0  0  0  0  0  0  0  0
   13.7124    1.6291    0.0000 H   0  0  0  0  0  0  0  0  0  0  0  0
   14.3849    4.1386    0.0000 H   0  0  0  0  0  0  0  0  0  0  0  0
   11.4648    2.7829    0.0000 H   0  0  0  0  0  0  0  0  0  0  0  0
   12.9360    5.3033    0.0000 H   0  0  0  0  0  0  0  0  0  0  0  0
   12.5477    6.7522    0.0000 H   0  0  0  0  0  0  0  0  0  0  0  0
    9.6134    6.1552    0.0000 H   0  0  0  0  0  0  0  0  0  0  0  0
   11.7713    8.8735    0.0000 H   0  0  0  0  0  0  0  0  0  0  0  0
    8.9775    5.5875    0.0000 H   0  0  0  0  0  0  0  0  0  0  0  0
    9.2617    1.6291    0.0000 H   0  0  0  0  0  0  0  0  0  0  0  0
   12.5477    2.3015    0.0000 H   0  0  0  0  0  0  0  0  0  0  0  0
   12.1220    3.7866    0.0000 H   0  0  0  0  0  0  0  0  0  0  0  0
   10.7106    1.2408    0.0000 H   0  0  0  0  0  0  0  0  0  0  0  0
    7.8128    2.0173    0.0000 H   0  0  0  0  0  0  0  0  0  0  0  0
    8.4098    4.9516    0.0000 H   0  0  0  0  0  0  0  0  0  0  0  0
    6.3640    5.3033    0.0000 H   0  0  0  0  0  0  0  0  0  0  0  0
    4.6309    3.8544    0.0000 H   0  0  0  0  0  0  0  0  0  0  0  0
    6.7522    1.7331    0.0000 H   0  0  0  0  0  0  0  0  0  0  0  0
    3.5702    2.7938    0.0000 H   0  0  0  0  0  0  0  0  0  0  0  0
    5.6915    0.6724    0.0000 H   0  0  0  0  0  0  0  0  0  0  0  0
    3.9584   -0.7765    0.0000 H   0  0  0  0  0  0  0  0  0  0  0  0
    1.9126    2.5461    0.0000 H   0  0  0  0  0  0  0  0  0  0  0  0
    2.1213   -1.0607    0.0000 H   0  0  0  0  0  0  0  0  0  0  0  0
   -1.6467   -1.3808    0.0000 H   0  0  0  0  0  0  0  0  0  0  0  0
   -4.0038    0.2575    0.0000 H   0  0  0  0  0  0  0  0  0  0  0  0
   -2.8215   -1.0790    0.0000 H   0  0  0  0  0  0  0  0  0  0  0  0
   -4.3467    1.4489    0.0000 H   0  0  0  0  0  0  0  0  0  0  0  0
   -4.3467    4.3467    0.0000 H   0  0  0  0  0  0  0  0  0  0  0  0
   -1.8632    1.3980    0.0000 H   0  0  0  0  0  0  0  0  0  0  0  0
    0.6724    3.5702    0.0000 H   0  0  0  0  0  0  0  0  0  0  0  0
    1.1979    1.9634    0.0000 H   0  0  0  0  0  0  0  0  0  0  0  0
  1  2  2  3
  2  3  1  0
  3  4  1  0
  4  5  1  0
  3  6  1  0
  6  7  1  0
  7  8  1  0
  7  9  1  0
  9 10  1  0
 10 11  1  0
 11 12  1  0
 12 13  1  0
 13 14  1  0
 14 15  1  0
 15 16  1  0
 16 17  1  0
 17 18  1  0
 18 19  1  0
 19 20  1  0
 20 21  1  0
 21 22  1  0
 22 23  1  0
 23 15  1  0
 23 17  1  0
 21 19  1  0
  1 24  1  0
  1 25  1  0
  2 26  1  0
  3 27  1  0
  4 28  1  0
  4 29  1  0
  5 30  1  0
  6 31  1  0
  7 32  1  0
  8 33  1  0
  8 34  1  0
  8 35  1  0
  9 36  1  0
  9 37  1  0
 10 38  1  0
 11 39  1  0
 11 40  1  0
 12 41  1  0
 12 42  1  0
 13 43  1  0
 14 44  1  0
 15 45  1  0
 17 46  1  0
 18 47  1  0
 18 48  1  0
 19 49  1  0
 20 50  1  0
 21 51  1  0
 22 52  1  0
 23 53  1  0
M  END
$$$$
