
     RDKit          2D

 45 48  0  0  0  0  0  0  0  0999 V2000
    7.6153    8.0435    0.0000 C   0  0  0  0  0  0  0  0  0  0  0  0
    6.6511    6.8944    0.0000 C   0  0  0  0  0  0  0  0  0  0  0  0
    5.6869    5.7453    0.0000 C   0  0  0  0  0  0  0  0  0  0  0  0
    4.7228    4.5963    0.0000 C   0  0  0  0  0  0  0  0  0  0  0  0
    3.7586    3.4472    0.0000 C   0  0  0  0  0  0  0  0  0  0  0  0
    2.7944    2.2981    0.0000 C   0  0  0  0  0  0  0  0  0  0  0  0
    1.8302    1.1491    0.0000 C   0  0  0  0  0  0  0  0  0  0  0  0
    0.8660    0.0000    0.0000 C   0  0  0  0  0  0  0  0  0  0  0  0
   -0.4330    0.7500    0.0000 C   0  0  0  0  0  0  0  0  0  0  0  0
   -1.7321    1.5000    0.0000 C   0  0  0  0  0  0  0  0  0  0  0  0
   -1.7321    0.0000    0.0000 C   0  0  0  0  0  0  0  0  0  0  0  0
   -1.7321   -1.5000    0.0000 C   0  0  0  0  0  0  0  0  0  0  0  0
   -3.2093   -1.7605    0.0000 C   0  0  0  0  0  0  0  0  0  0  0  0
   -4.6865   -2.0209    0.0000 C   0  0  0  0  0  0  0  0  0  0  0  0
   -6.1637   -2.2814    0.0000 C   0  0  0  0  0  0  0  0  0  0  0  0
   -7.6409   -2.5419    0.0000 C   0  0  0  0  0  0  0  0  0  0  0  0
   -0.4330   -0.7500    0.0000 C   0  0  0  0  0  0  0  0  0  0  0  0
    8.5795    9.1925    0.0000 H   0  0  0  0  0  0  0  0  0  0  0  0
    8.7644    7.0793    0.0000 H   0  0  0  0  0  0  0  0  0  0  0  0
    6.4662    9.0076    0.0000 H   0  0  0  0  0  0  0  0  0  0  0  0
    7.8002    5.9302    0.0000 H   0  0  0  0  0  0  0  0  0  0  0  0
    5.5020    7.8586    0.0000 H   0  0  0  0  0  0  0  0  0  0  0  0
    4.5379    6.7095    0.0000 H   0  0  0  0  0  0  0  0  0  0  0  0
    6.8360    4.7812    0.0000 H   0  0  0  0  0  0  0  0  0  0  0  0
    5.8718    3.6321    0.0000 H   0  0  0  0  0  0  0  0  0  0  0  0
    3.5737    5.5604    0.0000 H   0  0  0  0  0  0  0  0  0  0  0  0
    2.6095    4.4114    0.0000 H   0  0  0  0  0  0  0  0  0  0  0  0
    4.9076    2.4830    0.0000 H   0  0  0  0  0  0  0  0  0  0  0  0
    3.9435    1.3340    0.0000 H   0  0  0  0  0  0  0  0  0  0  0  0
    1.6453    3.2623    0.0000 H   0  0  0  0  0  0  0  0  0  0  0  0
    0.6811    2.1132    0.0000 H   0  0  0  0  0  0  0  0  0  0  0  0
    2.9793    0.1849    0.0000 H   0  0  0  0  0  0  0  0  0  0  0  0
    1.8302   -1.1491    0.0000 H   0  0  0  0  0  0  0  0  0  0  0  0
   -1.2190    2.9095    0.0000 H   0  0  0  0  0  0  0  0  0  0  0  0
   -3.2093    1.7605    0.0000 H   0  0  0  0  0  0  0  0  0  0  0  0
   -1.2190   -2.9095    0.0000 H   0  0  0  0  0  0  0  0  0  0  0  0
   -2.9488   -3.2377    0.0000 H   0  0  0  0  0  0  0  0  0  0  0  0
   -3.4697   -0.2833    0.0000 H   0  0  0  0  0  0  0  0  0  0  0  0
   -4.9469   -0.5437    0.0000 H   0  0  0  0  0  0  0  0  0  0  0  0
   -4.4260   -3.4982    0.0000 H   0  0  0  0  0  0  0  0  0  0  0  0
   -5.9032   -3.7586    0.0000 H   0  0  0  0  0  0  0  0  0  0  0  0
   -6.4242   -0.8042    0.0000 H   0  0  0  0  0  0  0  0  0  0  0  0
   -9.1181   -2.8024    0.0000 H   0  0  0  0  0  0  0  0  0  0  0  0
   -7.9014   -1.0647    0.0000 H   0  0  0  0  0  0  0  0  0  0  0  0
   -7.3804   -4.0191    0.0000 H   0  0  0  0  0  0  0  0  0  0  0  0
  1  2  1  0
  2  3  1  0
  3  4  1  0
  4  5  1  0
  5  6  1  0
  6  7  1  0
  7  8  1  0
  8  9  1  0
  9 10  1  0
 10 11  1  0
 11 12  1  0
 12 13  1  0
 13 14  1  0
 14 15  1  0
 15 16  1  0
 12 17  1  0
 17  8  1  0
 11  9  1  0
 17  9  1  0
 17 11  1  0
  1 18  1  0
  1 19  1  0
  1 20  1  0
  2 21  1  0
  2 22  1  0
  3 23  1  0
  3 24  1  0
  4 25  1  0
  4 26  1  0
  5 27  1  0
  5 28  1  0
  6 29  1  0
  6 30  1  0
  7 31  1  0
  7 32  1  0
  8 33  1  0
 10 34  1  0
 10 35  1  0
 12 36  1  0
 13 37  1  0
 13 38  1  0
 14 39  1  0
 14 40  1  0
 15 41  1  0
 15 42  1  0
 16 43  1  0
 16 44  1  0
 16 45  1  0
M  END
$$$$
