
     RDKit          2D

 66 72  0  0  0  0  0  0  0  0999 V2000
    1.6453    3.2623    0.0000 C   0  0  0  0  0  0  0  0  0  0  0  0
    2.7944    2.2981    0.0000 C   0  0  0  0  0  0  0  0  0  0  0  0
    3.9435    1.3340    0.0000 C   0  0  0  0  0  0  0  0  0  0  0  0
    1.8302    1.1491    0.0000 C   0  0  0  0  0  0  0  0  0  0  0  0
    0.8660    0.0000    0.0000 C   0  0  0  0  0  0  0  0  0  0  0  0
   -0.4330    0.7500    0.0000 C   0  0  0  0  0  0  0  0  0  0  0  0
   -1.4937    1.8107    0.0000 O   0  0  0  0  0  0  0  0  0  0  0  0
   -2.9937    1.8107    0.0000 C   0  0  0  0  0  0  0  0  0  0  0  0
   -4.0543    0.7500    0.0000 C   0  0  0  0  0  0  0  0  0  0  0  0
   -5.5032    0.3618    0.0000 C   0  0  0  0  0  0  0  0  0  0  0  0
   -4.0543   -0.7500    0.0000 C   0  0  0  0  0  0  0  0  0  0  0  0
   -2.9937   -1.8107    0.0000 C   0  0  0  0  0  0  0  0  0  0  0  0
   -2.6054   -3.2595    0.0000 C   0  0  0  0  0  0  0  0  0  0  0  0
   -2.2172   -4.7084    0.0000 O   0  0  0  0  0  0  0  0  0  0  0  0
   -3.2779   -5.7691    0.0000 N   0  0  0  0  0  0  0  0  0  0  0  0
   -2.8896   -7.2180    0.0000 C   0  0  0  0  0  0  0  0  0  0  0  0
   -4.3385   -7.6062    0.0000 C   0  0  0  0  0  0  0  0  0  0  0  0
   -3.9503   -9.0551    0.0000 C   0  0  0  0  0  0  0  0  0  0  0  0
   -2.5014   -8.6669    0.0000 C   0  0  0  0  0  0  0  0  0  0  0  0
   -1.4937   -1.8107    0.0000 C   0  0  0  0  0  0  0  0  0  0  0  0
   -0.1946   -2.5607    0.0000 O   0  0  0  0  0  0  0  0  0  0  0  0
   -0.1946   -4.0607    0.0000 C   0  0  0  0  0  0  0  0  0  0  0  0
   -1.6718   -4.3211    0.0000 O   0  0  0  0  0  0  0  0  0  0  0  0
    1.2826   -4.3211    0.0000 C   0  0  0  0  0  0  0  0  0  0  0  0
    2.6921   -3.8081    0.0000 C   0  0  0  0  0  0  0  0  0  0  0  0
    3.2051   -5.2176    0.0000 O   0  0  0  0  0  0  0  0  0  0  0  0
    1.7956   -5.7307    0.0000 C   0  0  0  0  0  0  0  0  0  0  0  0
    1.5351   -7.2079    0.0000 O   0  0  0  0  0  0  0  0  0  0  0  0
    0.0579   -6.9474    0.0000 O   0  0  0  0  0  0  0  0  0  0  0  0
    0.3184   -5.4702    0.0000 C   0  0  0  0  0  0  0  0  0  0  0  0
   -0.4330   -0.7500    0.0000 C   0  0  0  0  0  0  0  0  0  0  0  0
    0.4963    4.2265    0.0000 H   0  0  0  0  0  0  0  0  0  0  0  0
    2.7424    4.2853    0.0000 H   0  0  0  0  0  0  0  0  0  0  0  0
    2.4622    4.5203    0.0000 H   0  0  0  0  0  0  0  0  0  0  0  0
    3.7586    3.4472    0.0000 H   0  0  0  0  0  0  0  0  0  0  0  0
    5.0925    0.3698    0.0000 H   0  0  0  0  0  0  0  0  0  0  0  0
    4.9076    2.4830    0.0000 H   0  0  0  0  0  0  0  0  0  0  0  0
    3.1265    0.0759    0.0000 H   0  0  0  0  0  0  0  0  0  0  0  0
    0.8072    2.2461    0.0000 H   0  0  0  0  0  0  0  0  0  0  0  0
    2.8532    0.0520    0.0000 H   0  0  0  0  0  0  0  0  0  0  0  0
    1.8302   -1.1491    0.0000 H   0  0  0  0  0  0  0  0  0  0  0  0
    0.3283    2.0425    0.0000 H   0  0  0  0  0  0  0  0  0  0  0  0
   -4.1916    2.7134    0.0000 H   0  0  0  0  0  0  0  0  0  0  0  0
   -2.6054    3.2595    0.0000 H   0  0  0  0  0  0  0  0  0  0  0  0
   -4.9571    1.9479    0.0000 H   0  0  0  0  0  0  0  0  0  0  0  0
   -6.9521   -0.0265    0.0000 H   0  0  0  0  0  0  0  0  0  0  0  0
   -5.8915    1.8107    0.0000 H   0  0  0  0  0  0  0  0  0  0  0  0
   -5.2945   -1.1236    0.0000 H   0  0  0  0  0  0  0  0  0  0  0  0
   -4.9571   -1.9479    0.0000 H   0  0  0  0  0  0  0  0  0  0  0  0
   -5.5461   -0.9069    0.0000 H   0  0  0  0  0  0  0  0  0  0  0  0
   -4.1916   -2.7134    0.0000 H   0  0  0  0  0  0  0  0  0  0  0  0
   -4.0543   -3.6478    0.0000 H   0  0  0  0  0  0  0  0  0  0  0  0
   -1.1200   -3.0508    0.0000 H   0  0  0  0  0  0  0  0  0  0  0  0
   -4.6686   -5.2072    0.0000 H   0  0  0  0  0  0  0  0  0  0  0  0
   -1.4408   -6.8298    0.0000 H   0  0  0  0  0  0  0  0  0  0  0  0
   -5.7874   -7.9944    0.0000 H   0  0  0  0  0  0  0  0  0  0  0  0
   -4.9005   -6.2155    0.0000 H   0  0  0  0  0  0  0  0  0  0  0  0
   -3.5621  -10.5040    0.0000 H   0  0  0  0  0  0  0  0  0  0  0  0
   -5.3992   -9.4433    0.0000 H   0  0  0  0  0  0  0  0  0  0  0  0
   -1.0525   -8.2786    0.0000 H   0  0  0  0  0  0  0  0  0  0  0  0
   -2.1132  -10.1158    0.0000 H   0  0  0  0  0  0  0  0  0  0  0  0
   -1.3368   -3.3024    0.0000 H   0  0  0  0  0  0  0  0  0  0  0  0
   -2.1849   -5.7307    0.0000 H   0  0  0  0  0  0  0  0  0  0  0  0
    4.1017   -3.2951    0.0000 H   0  0  0  0  0  0  0  0  0  0  0  0
    2.1791   -2.3986    0.0000 H   0  0  0  0  0  0  0  0  0  0  0  0
    0.4801   -1.9400    0.0000 H   0  0  0  0  0  0  0  0  0  0  0  0
  1  2  1  0
  2  3  1  0
  2  4  1  0
  4  5  1  0
  5  6  1  0
  6  7  1  0
  7  8  1  0
  8  9  1  0
  9 10  1  0
  9 11  1  0
 11 12  1  0
 12 13  1  0
 13 14  1  0
 14 15  1  0
 15 16  1  0
 16 17  1  0
 17 18  1  0
 18 19  1  0
 12 20  1  0
 20 21  1  0
 21 22  1  0
 22 23  1  0
 22 24  1  0
 24 25  1  0
 25 26  1  0
 26 27  1  0
 27 28  1  0
 28 29  1  0
 29 30  1  0
 20 31  1  0
 31  5  1  0
 31  6  1  0
 19 16  1  0
 30 22  1  0
 27 24  1  0
 30 24  1  0
 30 27  1  0
  1 32  1  0
  1 33  1  0
  1 34  1  0
  2 35  1  0
  3 36  1  0
  3 37  1  0
  3 38  1  0
  4 39  1  0
  4 40  1  0
  5 41  1  0
  6 42  1  0
  8 43  1  0
  8 44  1  0
  9 45  1  0
 10 46  1  0
 10 47  1  0
 10 48  1  0
 11 49  1  0
 11 50  1  0
 12 51  1  0
 13 52  1  0
 13 53  1  0
 15 54  1  0
 16 55  1  0
 17 56  1  0
 17 57  1  0
 18 58  1  0
 18 59  1  0
 19 60  1  0
 19 61  1  0
 20 62  1  0
 23 63  1  0
 25 64  1  0
 25 65  1  0
 31 66  1  0
M  END
$$$$
