
     RDKit          2D

 52 56  0  0  0  0  0  0  0  0999 V2000
   -0.0982   -4.1491    0.0000 C   0  0  0  0  0  0  0  0  0  0  0  0
    0.8660   -3.0000    0.0000 C   0  0  0  0  0  0  0  0  0  0  0  0
    2.1651   -2.2500    0.0000 C   0  0  0  0  0  0  0  0  0  0  0  0
    2.1651   -0.7500    0.0000 C   0  0  0  0  0  0  0  0  0  0  0  0
    0.8660    0.0000    0.0000 C   0  0  0  0  0  0  0  0  0  0  0  0
   -0.4330    0.7500    0.0000 C   0  0  0  0  0  0  0  0  0  0  0  0
   -1.9102    1.0105    0.0000 C   0  0  0  0  0  0  0  0  0  0  0  0
   -3.3874    1.2709    0.0000 C   0  0  0  0  0  0  0  0  0  0  0  0
   -4.8646    1.5314    0.0000 C   0  0  0  0  0  0  0  0  0  0  0  0
   -4.8646    3.0314    0.0000 C   0  0  0  0  0  0  0  0  0  0  0  0
   -5.6146    4.3305    0.0000 O   0  0  0  0  0  0  0  0  0  0  0  0
   -6.9137    3.5805    0.0000 C   0  0  0  0  0  0  0  0  0  0  0  0
   -6.1637    2.2814    0.0000 C   0  0  0  0  0  0  0  0  0  0  0  0
   -7.2243    1.2208    0.0000 C   0  0  0  0  0  0  0  0  0  0  0  0
   -8.2850    0.1601    0.0000 C   0  0  0  0  0  0  0  0  0  0  0  0
   -9.1454    1.3888    0.0000 C   0  0  0  0  0  0  0  0  0  0  0  0
  -10.6397    1.2581    0.0000 S   0  0  0  0  0  0  0  0  0  0  0  0
  -11.2736   -0.1014    0.0000 N   0  0  0  0  0  0  0  0  0  0  0  0
  -10.4132   -1.3301    0.0000 C   0  0  0  0  0  0  0  0  0  0  0  0
   -8.9189   -1.1994    0.0000 N   0  0  0  0  0  0  0  0  0  0  0  0
   -0.4330   -0.7500    0.0000 C   0  0  0  0  0  0  0  0  0  0  0  0
   -0.4330   -2.2500    0.0000 C   0  0  0  0  0  0  0  0  0  0  0  0
   -1.0623   -5.2981    0.0000 H   0  0  0  0  0  0  0  0  0  0  0  0
    1.0509   -5.1132    0.0000 H   0  0  0  0  0  0  0  0  0  0  0  0
   -1.3562   -3.3321    0.0000 H   0  0  0  0  0  0  0  0  0  0  0  0
    1.8302   -4.1491    0.0000 H   0  0  0  0  0  0  0  0  0  0  0  0
    2.6781   -3.6595    0.0000 H   0  0  0  0  0  0  0  0  0  0  0  0
    3.6423   -1.9895    0.0000 H   0  0  0  0  0  0  0  0  0  0  0  0
    3.6423   -1.0105    0.0000 H   0  0  0  0  0  0  0  0  0  0  0  0
    2.6781    0.6595    0.0000 H   0  0  0  0  0  0  0  0  0  0  0  0
    0.4526   -1.4419    0.0000 H   0  0  0  0  0  0  0  0  0  0  0  0
    0.0800    2.1595    0.0000 H   0  0  0  0  0  0  0  0  0  0  0  0
   -1.6498    2.4877    0.0000 H   0  0  0  0  0  0  0  0  0  0  0  0
   -2.3488   -0.4240    0.0000 H   0  0  0  0  0  0  0  0  0  0  0  0
   -2.9488    2.7054    0.0000 H   0  0  0  0  0  0  0  0  0  0  0  0
   -3.6479   -0.2063    0.0000 H   0  0  0  0  0  0  0  0  0  0  0  0
   -5.2020    0.0699    0.0000 H   0  0  0  0  0  0  0  0  0  0  0  0
   -3.4739    3.5934    0.0000 H   0  0  0  0  0  0  0  0  0  0  0  0
   -8.0321    3.1057    0.0000 H   0  0  0  0  0  0  0  0  0  0  0  0
   -7.6637    4.8795    0.0000 H   0  0  0  0  0  0  0  0  0  0  0  0
   -7.7880    1.7844    0.0000 H   0  0  0  0  0  0  0  0  0  0  0  0
   -6.3009    0.0387    0.0000 H   0  0  0  0  0  0  0  0  0  0  0  0
   -7.0563   -0.7003    0.0000 H   0  0  0  0  0  0  0  0  0  0  0  0
   -9.5336    2.8377    0.0000 H   0  0  0  0  0  0  0  0  0  0  0  0
   -8.3108    1.9104    0.0000 H   0  0  0  0  0  0  0  0  0  0  0  0
  -12.7679   -0.2321    0.0000 H   0  0  0  0  0  0  0  0  0  0  0  0
  -10.0250   -2.7790    0.0000 H   0  0  0  0  0  0  0  0  0  0  0  0
  -11.7727   -1.9640    0.0000 H   0  0  0  0  0  0  0  0  0  0  0  0
   -8.0586   -2.4281    0.0000 H   0  0  0  0  0  0  0  0  0  0  0  0
   -1.9218   -0.9328    0.0000 H   0  0  0  0  0  0  0  0  0  0  0  0
   -1.9102   -1.9895    0.0000 H   0  0  0  0  0  0  0  0  0  0  0  0
   -1.1140   -3.5865    0.0000 H   0  0  0  0  0  0  0  0  0  0  0  0
  1  2  1  0
  2  3  1  0
  3  4  1  0
  4  5  1  0
  5  6  1  0
  6  7  1  0
  7  8  1  0
  8  9  1  0
  9 10  1  0
 10 11  1  0
 11 12  1  0
 12 13  1  0
 13 14  1  0
 14 15  1  0
 15 16  1  0
 16 17  1  0
 17 18  1  0
 18 19  1  0
 19 20  1  0
  6 21  1  0
 21 22  1  0
 22  2  1  0
 21  5  1  0
 13  9  1  0
 20 15  1  0
 13 10  1  0
  1 23  1  0
  1 24  1  0
  1 25  1  0
  2 26  1  0
  3 27  1  0
  3 28  1  0
  4 29  1  0
  4 30  1  0
  5 31  1  0
  6 32  1  0
  7 33  1  0
  7 34  1  0
  8 35  1  0
  8 36  1  0
  9 37  1  0
 10 38  1  0
 12 39  1  0
 12 40  1  0
 14 41  1  0
 14 42  1  0
 15 43  1  0
 16 44  1  0
 16 45  1  0
 18 46  1  0
 19 47  1  0
 19 48  1  0
 20 49  1  0
 21 50  1  0
 22 51  1  0
 22 52  1  0
M  END
$$$$
