
     RDKit          2D

107116  0  0  0  0  0  0  0  0999 V2000
  -10.1642   -1.2548    0.0000 C   0  0  0  0  0  0  0  0  0  0  0  0
   -8.9248   -0.4098    0.0000 C   0  0  0  0  0  0  0  0  0  0  0  0
   -7.5734   -1.0607    0.0000 C   0  0  0  0  0  0  0  0  0  0  0  0
   -8.5086   -2.2334    0.0000 C   0  0  0  0  0  0  0  0  0  0  0  0
   -8.1748   -3.6958    0.0000 C   0  0  0  0  0  0  0  0  0  0  0  0
   -6.8234   -4.3466    0.0000 C   0  0  0  0  0  0  0  0  0  0  0  0
   -5.4719   -3.6958    0.0000 C   0  0  0  0  0  0  0  0  0  0  0  0
   -5.1381   -2.2334    0.0000 C   0  0  0  0  0  0  0  0  0  0  0  0
   -3.7867   -2.8842    0.0000 C   0  0  0  0  0  0  0  0  0  0  0  0
   -2.2867   -2.8842    0.0000 C   0  0  0  0  0  0  0  0  0  0  0  0
   -0.9352   -2.2334    0.0000 C   0  0  0  0  0  0  0  0  0  0  0  0
   -0.0000   -1.0607    0.0000 C   0  0  0  0  0  0  0  0  0  0  0  0
    1.0607    0.0000    0.0000 C   0  0  0  0  0  0  0  0  0  0  0  0
    0.0000    1.0607    0.0000 C   0  0  0  0  0  0  0  0  0  0  0  0
    0.0000    2.5607    0.0000 I   0  0  0  0  0  0  0  0  0  0  0  0
   -0.9352    3.0369    0.0000 C   0  0  0  0  0  0  0  0  0  0  0  0
   -2.2867    3.6877    0.0000 C   0  0  0  0  0  0  0  0  0  0  0  0
   -3.7867    3.6877    0.0000 Al  0  0  0  0  0  3  0  0  0  0  0  0
   -5.1381    3.0369    0.0000 C   0  0  0  0  0  0  0  0  0  0  0  0
   -6.5715    3.4790    0.0000 C   0  0  0  0  0  0  0  0  0  0  0  0
   -6.1294    4.9124    0.0000 C   0  0  0  0  0  0  0  0  0  0  0  0
   -7.5627    5.3545    0.0000 C   0  0  0  0  0  0  0  0  0  0  0  0
   -8.0049    3.9211    0.0000 C   0  0  0  0  0  0  0  0  0  0  0  0
   -8.4470    2.4878    0.0000 C   0  0  0  0  0  0  0  0  0  0  0  0
   -7.0136    2.0456    0.0000 C   0  0  0  0  0  0  0  0  0  0  0  0
   -7.4558    0.6123    0.0000 C   0  0  0  0  0  0  0  0  0  0  0  0
   -8.8891    1.0544    0.0000 C   0  0  0  0  0  0  0  0  0  0  0  0
   -9.9887    0.0342    0.0000 C   0  0  0  0  0  0  0  0  0  0  0  0
  -10.3225    1.4966    0.0000 C   0  0  0  0  0  0  0  0  0  0  0  0
   -9.8804    2.9299    0.0000 C   0  0  0  0  0  0  0  0  0  0  0  0
   -8.5542    3.6308    0.0000 C   0  0  0  0  0  0  0  0  0  0  0  0
   -9.8243    4.4289    0.0000 C   0  0  0  0  0  0  0  0  0  0  0  0
  -11.0944    5.2269    0.0000 C   0  0  0  0  0  0  0  0  0  0  0  0
   -9.7682    5.9278    0.0000 C   0  0  0  0  0  0  0  0  0  0  0  0
  -10.2281    7.3555    0.0000 C   0  0  0  0  0  0  0  0  0  0  0  0
   -8.2823    6.1329    0.0000 C   0  0  0  0  0  0  0  0  0  0  0  0
   -6.7963    6.3379    0.0000 C   0  0  0  0  0  0  0  0  0  0  0  0
   -5.3104    6.5430    0.0000 O   0  0  0  0  0  0  0  0  0  0  0  0
   -6.0734    1.8641    0.0000 C   0  0  0  0  0  0  0  0  0  0  0  0
   -6.4072    0.4017    0.0000 C   0  0  0  0  0  0  0  0  0  0  0  0
   -7.6465   -0.4432    0.0000 O   0  0  0  0  0  0  0  0  0  0  0  0
   -6.0734   -1.0607    0.0000 C   0  0  0  0  0  0  0  0  0  0  0  0
   -1.0607    0.0000    0.0000 C   0  0  0  0  0  0  0  0  0  0  0  0
   -2.1213   -1.0607    0.0000 C   0  0  0  0  0  0  0  0  0  0  0  0
   -3.1820   -2.1213    0.0000 C   0  0  0  0  0  0  0  0  0  0  0  0
  -11.5849   -0.7736    0.0000 H   0  0  0  0  0  0  0  0  0  0  0  0
  -10.2353   -2.7531    0.0000 H   0  0  0  0  0  0  0  0  0  0  0  0
   -9.5656    0.9464    0.0000 H   0  0  0  0  0  0  0  0  0  0  0  0
   -7.0638    0.3501    0.0000 H   0  0  0  0  0  0  0  0  0  0  0  0
   -9.8601   -2.8842    0.0000 H   0  0  0  0  0  0  0  0  0  0  0  0
   -9.8021   -1.4738    0.0000 H   0  0  0  0  0  0  0  0  0  0  0  0
   -8.6844   -5.1066    0.0000 H   0  0  0  0  0  0  0  0  0  0  0  0
   -9.6636   -3.8786    0.0000 H   0  0  0  0  0  0  0  0  0  0  0  0
   -6.0381   -5.6246    0.0000 H   0  0  0  0  0  0  0  0  0  0  0  0
   -7.6087   -5.6246    0.0000 H   0  0  0  0  0  0  0  0  0  0  0  0
   -3.9719   -3.6958    0.0000 H   0  0  0  0  0  0  0  0  0  0  0  0
   -4.9624   -5.1066    0.0000 H   0  0  0  0  0  0  0  0  0  0  0  0
   -4.6569   -3.6541    0.0000 H   0  0  0  0  0  0  0  0  0  0  0  0
   -3.4130   -4.3369    0.0000 H   0  0  0  0  0  0  0  0  0  0  0  0
   -4.4475   -4.2308    0.0000 H   0  0  0  0  0  0  0  0  0  0  0  0
   -1.3197   -4.0309    0.0000 H   0  0  0  0  0  0  0  0  0  0  0  0
   -2.6604   -4.3369    0.0000 H   0  0  0  0  0  0  0  0  0  0  0  0
    0.4335   -2.8470    0.0000 H   0  0  0  0  0  0  0  0  0  0  0  0
   -0.6416   -3.7044    0.0000 H   0  0  0  0  0  0  0  0  0  0  0  0
    0.1828   -2.5495    0.0000 H   0  0  0  0  0  0  0  0  0  0  0  0
    2.1213    1.0607    0.0000 H   0  0  0  0  0  0  0  0  0  0  0  0
    2.1213   -1.0607    0.0000 H   0  0  0  0  0  0  0  0  0  0  0  0
   -0.6416    4.5079    0.0000 H   0  0  0  0  0  0  0  0  0  0  0  0
    0.4981    3.4790    0.0000 H   0  0  0  0  0  0  0  0  0  0  0  0
   -2.8347    5.0840    0.0000 H   0  0  0  0  0  0  0  0  0  0  0  0
   -1.3197    4.8344    0.0000 H   0  0  0  0  0  0  0  0  0  0  0  0
   -3.9397    5.1799    0.0000 H   0  0  0  0  0  0  0  0  0  0  0  0
   -5.0671    4.5352    0.0000 H   0  0  0  0  0  0  0  0  0  0  0  0
   -6.8356    2.0024    0.0000 H   0  0  0  0  0  0  0  0  0  0  0  0
   -5.3535    6.1961    0.0000 H   0  0  0  0  0  0  0  0  0  0  0  0
   -4.6316    4.8302    0.0000 H   0  0  0  0  0  0  0  0  0  0  0  0
   -8.6206    6.4179    0.0000 H   0  0  0  0  0  0  0  0  0  0  0  0
   -6.7869    6.6383    0.0000 H   0  0  0  0  0  0  0  0  0  0  0  0
   -9.2886    4.6970    0.0000 H   0  0  0  0  0  0  0  0  0  0  0  0
   -5.5573    2.4048    0.0000 H   0  0  0  0  0  0  0  0  0  0  0  0
   -8.5192   -0.4456    0.0000 H   0  0  0  0  0  0  0  0  0  0  0  0
   -6.1720   -0.1635    0.0000 H   0  0  0  0  0  0  0  0  0  0  0  0
   -9.3345   -1.3157    0.0000 H   0  0  0  0  0  0  0  0  0  0  0  0
  -11.4316   -0.3757    0.0000 H   0  0  0  0  0  0  0  0  0  0  0  0
  -11.8214    1.5526    0.0000 H   0  0  0  0  0  0  0  0  0  0  0  0
   -7.4546    4.6511    0.0000 H   0  0  0  0  0  0  0  0  0  0  0  0
  -12.1008    4.1147    0.0000 H   0  0  0  0  0  0  0  0  0  0  0  0
  -12.1524    6.2902    0.0000 H   0  0  0  0  0  0  0  0  0  0  0  0
  -10.6881    8.7833    0.0000 H   0  0  0  0  0  0  0  0  0  0  0  0
   -8.8671    7.9861    0.0000 H   0  0  0  0  0  0  0  0  0  0  0  0
  -11.7013    7.0730    0.0000 H   0  0  0  0  0  0  0  0  0  0  0  0
   -8.3047    7.6327    0.0000 H   0  0  0  0  0  0  0  0  0  0  0  0
   -7.5582    4.8192    0.0000 H   0  0  0  0  0  0  0  0  0  0  0  0
   -7.0014    7.8238    0.0000 H   0  0  0  0  0  0  0  0  0  0  0  0
   -6.0723    5.0242    0.0000 H   0  0  0  0  0  0  0  0  0  0  0  0
   -4.7450    7.9323    0.0000 H   0  0  0  0  0  0  0  0  0  0  0  0
   -7.4584    1.2883    0.0000 H   0  0  0  0  0  0  0  0  0  0  0  0
   -7.1154    2.9431    0.0000 H   0  0  0  0  0  0  0  0  0  0  0  0
   -7.8670    0.7463    0.0000 H   0  0  0  0  0  0  0  0  0  0  0  0
   -8.6749    0.6488    0.0000 H   0  0  0  0  0  0  0  0  0  0  0  0
   -7.5034   -0.6079    0.0000 H   0  0  0  0  0  0  0  0  0  0  0  0
   -2.1213    1.0607    0.0000 H   0  0  0  0  0  0  0  0  0  0  0  0
   -3.1820    0.0000    0.0000 H   0  0  0  0  0  0  0  0  0  0  0  0
   -1.3488   -2.3465    0.0000 H   0  0  0  0  0  0  0  0  0  0  0  0
   -4.4678   -2.8938    0.0000 H   0  0  0  0  0  0  0  0  0  0  0  0
   -4.2426   -1.0607    0.0000 H   0  0  0  0  0  0  0  0  0  0  0  0
   -2.4095   -3.4071    0.0000 H   0  0  0  0  0  0  0  0  0  0  0  0
  1  2  2  3
  2  3  1  0
  3  4  1  0
  4  5  1  0
  5  6  1  0
  6  7  1  0
  7  8  1  0
  8  9  1  0
  9 10  1  0
 10 11  1  0
 11 12  1  0
 12 13  1  0
 13 14  1  0
 14 15  1  0
 14 16  1  0
 16 17  1  0
 17 18  1  0
 18 19  1  0
 19 20  1  0
 20 21  1  0
 21 22  1  0
 22 23  1  0
 23 24  1  0
 24 25  1  0
 25 26  1  0
 26 27  1  0
 27 28  1  0
 28 29  1  0
 29 30  1  0
 30 31  1  0
 31 32  1  0
 32 33  1  0
 33 34  1  0
 34 35  1  0
 34 36  1  0
 36 37  1  0
 37 38  1  0
 19 39  1  0
 39 40  1  0
 40 41  1  0
 40 42  1  0
 14 43  1  0
 43 44  1  0
 44 45  1  0
 42  3  1  0
 42  8  1  0
 43 12  1  0
 23 20  1  0
 27 24  1  0
 32 30  1  0
 30 24  1  0
 34 32  1  0
 31 25  1  0
 29 27  1  0
  1 46  1  0
  1 47  1  0
  2 48  1  0
  3 49  1  0
  4 50  1  0
  4 51  1  0
  5 52  1  0
  5 53  1  0
  6 54  1  0
  6 55  1  0
  7 56  1  0
  7 57  1  0
  8 58  1  0
  9 59  1  0
  9 60  1  0
 10 61  1  0
 10 62  1  0
 11 63  1  0
 11 64  1  0
 12 65  1  0
 13 66  1  0
 13 67  1  0
 16 68  1  0
 16 69  1  0
 17 70  1  0
 17 71  1  0
 18 72  1  0
 19 73  1  0
 20 74  1  0
 21 75  1  0
 21 76  1  0
 22 77  1  0
 22 78  1  0
 23 79  1  0
 25 80  1  0
 26 81  1  0
 26 82  1  0
 28 83  1  0
 28 84  1  0
 29 85  1  0
 31 86  1  0
 33 87  1  0
 33 88  1  0
 35 89  1  0
 35 90  1  0
 35 91  1  0
 36 92  1  0
 36 93  1  0
 37 94  1  0
 37 95  1  0
 38 96  1  0
 39 97  1  0
 39 98  1  0
 40 99  1  0
 41100  1  0
 42101  1  0
 43102  1  0
 44103  1  0
 44104  1  0
 45105  1  0
 45106  1  0
 45107  1  0
M  END
$$$$
