
     RDKit          2D

115121  0  0  0  0  0  0  0  0999 V2000
   11.4593    2.6519    0.0000 C   0  0  0  0  0  0  0  0  0  0  0  0
   10.1603    1.9019    0.0000 C   0  0  0  0  0  0  0  0  0  0  0  0
    8.8612    1.1519    0.0000 C   0  0  0  0  0  0  0  0  0  0  0  0
    7.5622    0.4019    0.0000 C   0  0  0  0  0  0  0  0  0  0  0  0
    6.2631   -0.3481    0.0000 C   0  0  0  0  0  0  0  0  0  0  0  0
    4.9641   -1.0981    0.0000 C   0  0  0  0  0  0  0  0  0  0  0  0
    3.6651   -1.8481    0.0000 C   0  0  0  0  0  0  0  0  0  0  0  0
    2.3660   -2.5981    0.0000 C   0  0  0  0  0  0  0  0  0  0  0  0
    1.0670   -3.3481    0.0000 C   0  0  0  0  0  0  0  0  0  0  0  0
   -0.2321   -4.0981    0.0000 C   0  0  0  0  0  0  0  0  0  0  0  0
    0.3170   -2.0490    0.0000 C   0  0  0  0  0  0  0  0  0  0  0  0
   -0.9821   -2.7990    0.0000 C   0  0  0  0  0  0  0  0  0  0  0  0
   -2.2811   -3.5490    0.0000 C   0  0  0  0  0  0  0  0  0  0  0  0
   -3.5801   -4.2990    0.0000 O   0  0  0  0  0  0  0  0  0  0  0  0
   -3.5801   -5.7990    0.0000 C   0  0  0  0  0  0  0  0  0  0  0  0
   -2.0801   -5.7990    0.0000 C   0  0  0  0  0  0  0  0  0  0  0  0
   -5.0801   -5.7990    0.0000 C   0  0  0  0  0  0  0  0  0  0  0  0
   -1.7321   -1.5000    0.0000 C   0  0  0  0  0  0  0  0  0  0  0  0
   -3.1809   -1.8882    0.0000 C   0  0  0  0  0  0  0  0  0  0  0  0
   -4.6752   -1.7575    0.0000 C   0  0  0  0  0  0  0  0  0  0  0  0
   -3.8149   -0.5288    0.0000 C   0  0  0  0  0  0  0  0  0  0  0  0
   -4.8755    0.5319    0.0000 C   0  0  0  0  0  0  0  0  0  0  0  0
   -2.5861    0.3316    0.0000 O   0  0  0  0  0  0  0  0  0  0  0  0
   -1.7321   -0.0000    0.0000 C   0  0  0  0  0  0  0  0  0  0  0  0
   -1.4202    1.4672    0.0000 C   0  0  0  0  0  0  0  0  0  0  0  0
   -2.9120    1.6240    0.0000 C   0  0  0  0  0  0  0  0  0  0  0  0
    0.0716    1.6240    0.0000 C   0  0  0  0  0  0  0  0  0  0  0  0
   -0.2403    3.0912    0.0000 C   0  0  0  0  0  0  0  0  0  0  0  0
    0.6817    0.2537    0.0000 C   0  0  0  0  0  0  0  0  0  0  0  0
   -0.4330   -0.7500    0.0000 C   0  0  0  0  0  0  0  0  0  0  0  0
    4.4151   -3.1471    0.0000 N   0  0  0  0  0  0  0  0  0  0  0  0
    3.6651   -4.4462    0.0000 C   0  0  0  0  0  0  0  0  0  0  0  0
    2.9151   -5.7452    0.0000 C   0  0  0  0  0  0  0  0  0  0  0  0
    2.1651   -7.0442    0.0000 C   0  0  0  0  0  0  0  0  0  0  0  0
    5.9151   -3.1471    0.0000 C   0  0  0  0  0  0  0  0  0  0  0  0
    6.0719   -1.6553    0.0000 O   0  0  0  0  0  0  0  0  0  0  0  0
    7.5391   -1.3435    0.0000 C   0  0  0  0  0  0  0  0  0  0  0  0
    8.2891   -2.6425    0.0000 C   0  0  0  0  0  0  0  0  0  0  0  0
    7.2854   -3.7572    0.0000 C   0  0  0  0  0  0  0  0  0  0  0  0
    7.4422   -5.2490    0.0000 C   0  0  0  0  0  0  0  0  0  0  0  0
    6.0719   -4.6389    0.0000 N   0  0  0  0  0  0  0  0  0  0  0  0
    6.8122    1.7010    0.0000 C   0  0  0  0  0  0  0  0  0  0  0  0
    6.0622    3.0000    0.0000 C   0  0  0  0  0  0  0  0  0  0  0  0
    5.3122    4.2990    0.0000 C   0  0  0  0  0  0  0  0  0  0  0  0
    7.3612    3.7500    0.0000 C   0  0  0  0  0  0  0  0  0  0  0  0
   12.7583    3.4019    0.0000 H   0  0  0  0  0  0  0  0  0  0  0  0
   10.7093    3.9510    0.0000 H   0  0  0  0  0  0  0  0  0  0  0  0
   12.2093    1.3529    0.0000 H   0  0  0  0  0  0  0  0  0  0  0  0
    9.4103    3.2010    0.0000 H   0  0  0  0  0  0  0  0  0  0  0  0
   10.9103    0.6029    0.0000 H   0  0  0  0  0  0  0  0  0  0  0  0
    9.6112   -0.1471    0.0000 H   0  0  0  0  0  0  0  0  0  0  0  0
    8.2752    2.5327    0.0000 H   0  0  0  0  0  0  0  0  0  0  0  0
    8.4649   -0.7960    0.0000 H   0  0  0  0  0  0  0  0  0  0  0  0
    5.3604    0.8499    0.0000 H   0  0  0  0  0  0  0  0  0  0  0  0
    6.8169   -0.9215    0.0000 H   0  0  0  0  0  0  0  0  0  0  0  0
    6.2363   -1.8928    0.0000 H   0  0  0  0  0  0  0  0  0  0  0  0
    4.2141    0.2010    0.0000 H   0  0  0  0  0  0  0  0  0  0  0  0
    2.9151   -0.5490    0.0000 H   0  0  0  0  0  0  0  0  0  0  0  0
    1.9526   -1.1562    0.0000 H   0  0  0  0  0  0  0  0  0  0  0  0
    2.6006   -4.0796    0.0000 H   0  0  0  0  0  0  0  0  0  0  0  0
    1.6530   -4.7288    0.0000 H   0  0  0  0  0  0  0  0  0  0  0  0
   -1.5311   -4.8481    0.0000 H   0  0  0  0  0  0  0  0  0  0  0  0
    0.3540   -5.4788    0.0000 H   0  0  0  0  0  0  0  0  0  0  0  0
    0.6707   -5.2960    0.0000 H   0  0  0  0  0  0  0  0  0  0  0  0
    1.6160   -1.2990    0.0000 H   0  0  0  0  0  0  0  0  0  0  0  0
   -0.5687   -4.2410    0.0000 H   0  0  0  0  0  0  0  0  0  0  0  0
   -1.5311   -4.8481    0.0000 H   0  0  0  0  0  0  0  0  0  0  0  0
   -3.3231   -2.4701    0.0000 H   0  0  0  0  0  0  0  0  0  0  0  0
   -3.5801   -7.2990    0.0000 H   0  0  0  0  0  0  0  0  0  0  0  0
   -0.5801   -5.7990    0.0000 H   0  0  0  0  0  0  0  0  0  0  0  0
   -2.0801   -7.2990    0.0000 H   0  0  0  0  0  0  0  0  0  0  0  0
   -1.7172   -4.3436    0.0000 H   0  0  0  0  0  0  0  0  0  0  0  0
   -6.5801   -5.7990    0.0000 H   0  0  0  0  0  0  0  0  0  0  0  0
   -5.0801   -7.2990    0.0000 H   0  0  0  0  0  0  0  0  0  0  0  0
   -5.0801   -4.2990    0.0000 H   0  0  0  0  0  0  0  0  0  0  0  0
   -3.4157   -3.3697    0.0000 H   0  0  0  0  0  0  0  0  0  0  0  0
   -5.0635   -3.2064    0.0000 H   0  0  0  0  0  0  0  0  0  0  0  0
   -6.1018   -1.2940    0.0000 H   0  0  0  0  0  0  0  0  0  0  0  0
   -5.9362    1.5926    0.0000 H   0  0  0  0  0  0  0  0  0  0  0  0
   -6.0576   -0.3916    0.0000 H   0  0  0  0  0  0  0  0  0  0  0  0
   -3.9521    1.7139    0.0000 H   0  0  0  0  0  0  0  0  0  0  0  0
   -3.0746    1.7498    0.0000 H   0  0  0  0  0  0  0  0  0  0  0  0
   -3.1936    0.3375    0.0000 H   0  0  0  0  0  0  0  0  0  0  0  0
   -1.6030    2.9560    0.0000 H   0  0  0  0  0  0  0  0  0  0  0  0
   -4.3735    1.9615    0.0000 H   0  0  0  0  0  0  0  0  0  0  0  0
   -2.7552    3.1158    0.0000 H   0  0  0  0  0  0  0  0  0  0  0  0
   -2.8857    0.1242    0.0000 H   0  0  0  0  0  0  0  0  0  0  0  0
    1.4982    2.0875    0.0000 H   0  0  0  0  0  0  0  0  0  0  0  0
   -0.5521    4.5585    0.0000 H   0  0  0  0  0  0  0  0  0  0  0  0
    1.2270    3.4031    0.0000 H   0  0  0  0  0  0  0  0  0  0  0  0
   -1.7346    2.9605    0.0000 H   0  0  0  0  0  0  0  0  0  0  0  0
    1.9807    1.0037    0.0000 H   0  0  0  0  0  0  0  0  0  0  0  0
    1.8308   -0.7104    0.0000 H   0  0  0  0  0  0  0  0  0  0  0  0
    2.2843   -3.8601    0.0000 H   0  0  0  0  0  0  0  0  0  0  0  0
    4.9641   -5.1962    0.0000 H   0  0  0  0  0  0  0  0  0  0  0  0
    4.2141   -6.4952    0.0000 H   0  0  0  0  0  0  0  0  0  0  0  0
    1.5343   -5.1591    0.0000 H   0  0  0  0  0  0  0  0  0  0  0  0
    1.4151   -8.3433    0.0000 H   0  0  0  0  0  0  0  0  0  0  0  0
    3.4641   -7.7942    0.0000 H   0  0  0  0  0  0  0  0  0  0  0  0
    0.8660   -6.2942    0.0000 H   0  0  0  0  0  0  0  0  0  0  0  0
    7.4345    0.1529    0.0000 H   0  0  0  0  0  0  0  0  0  0  0  0
    8.9735   -0.9049    0.0000 H   0  0  0  0  0  0  0  0  0  0  0  0
    9.5026   -1.7608    0.0000 H   0  0  0  0  0  0  0  0  0  0  0  0
    9.2928   -3.7572    0.0000 H   0  0  0  0  0  0  0  0  0  0  0  0
    8.9385   -5.3536    0.0000 H   0  0  0  0  0  0  0  0  0  0  0  0
    7.0793   -6.7044    0.0000 H   0  0  0  0  0  0  0  0  0  0  0  0
    8.0101    2.6037    0.0000 H   0  0  0  0  0  0  0  0  0  0  0  0
    5.4314    1.1149    0.0000 H   0  0  0  0  0  0  0  0  0  0  0  0
    4.7631    2.2500    0.0000 H   0  0  0  0  0  0  0  0  0  0  0  0
    4.5622    5.5981    0.0000 H   0  0  0  0  0  0  0  0  0  0  0  0
    6.3911    5.3411    0.0000 H   0  0  0  0  0  0  0  0  0  0  0  0
    4.0131    3.5490    0.0000 H   0  0  0  0  0  0  0  0  0  0  0  0
    8.6603    4.5000    0.0000 H   0  0  0  0  0  0  0  0  0  0  0  0
    6.9478    5.1919    0.0000 H   0  0  0  0  0  0  0  0  0  0  0  0
    6.6112    5.0490    0.0000 H   0  0  0  0  0  0  0  0  0  0  0  0
  1  2  1  0
  2  3  1  0
  3  4  1  0
  4  5  1  0
  5  6  1  0
  6  7  1  0
  7  8  1  0
  8  9  1  0
  9 10  1  0
  9 11  1  0
 11 12  1  0
 12 13  1  0
 13 14  1  0
 14 15  1  0
 15 16  1  0
 15 17  1  0
 12 18  1  0
 18 19  1  0
 19 20  1  0
 20 21  1  0
 21 22  1  0
 21 23  1  1
 18 24  1  0
 24 25  1  0
 25 26  1  0
 25 27  1  0
 27 28  1  0
 27 29  1  0
 30 29  1  6
  7 31  1  0
 31 32  1  0
 32 33  1  0
 33 34  1  0
 35 31  1  6
 35 36  1  0
 36 37  1  0
 37 38  1  0
 39 38  1  1
 39 40  1  0
 40 41  1  0
  4 42  1  0
 42 43  1  0
 43 44  1  0
 43 45  1  0
 30 11  1  0
 39 35  1  0
 18 30  1  1
 41 35  1  0
 21 19  1  0
 30 24  1  0
 41 39  1  0
  1 46  1  0
  1 47  1  0
  1 48  1  0
  2 49  1  0
  2 50  1  0
  3 51  1  0
  3 52  1  0
  4 53  1  6
  5 54  1  0
  5 55  1  0
  6 56  1  0
  6 57  1  0
  7 58  1  1
  8 59  1  0
  8 60  1  0
  9 61  1  1
 10 62  1  0
 10 63  1  0
 10 64  1  0
 11 65  1  6
 12 66  1  6
 13 67  1  0
 13 68  1  0
 15 69  1  0
 16 70  1  0
 16 71  1  0
 16 72  1  0
 17 73  1  0
 17 74  1  0
 17 75  1  0
 19 76  1  6
 20 77  1  0
 20 78  1  0
 22 79  1  0
 22 80  1  0
 22 81  1  0
 23 82  1  0
 24 83  1  6
 25 84  1  6
 26 85  1  0
 26 86  1  0
 26 87  1  0
 27 88  1  1
 28 89  1  0
 28 90  1  0
 28 91  1  0
 29 92  1  0
 29 93  1  0
 32 94  1  0
 32 95  1  0
 33 96  1  0
 33 97  1  0
 34 98  1  0
 34 99  1  0
 34100  1  0
 37101  1  0
 37102  1  0
 38103  1  0
 38104  1  0
 40105  1  0
 40106  1  0
 42107  1  0
 42108  1  0
 43109  1  0
 44110  1  0
 44111  1  0
 44112  1  0
 45113  1  0
 45114  1  0
 45115  1  0
M  END
$$$$
