
     RDKit          2D

 62 65  0  0  0  0  0  0  0  0999 V2000
   -7.1897    5.1005    0.0000 C   0  0  0  0  0  0  0  0  0  0  0  0
   -6.6767    3.6910    0.0000 C   0  0  0  0  0  0  0  0  0  0  0  0
   -6.1637    2.2814    0.0000 O   0  0  0  0  0  0  0  0  0  0  0  0
   -4.6865    2.0209    0.0000 C   0  0  0  0  0  0  0  0  0  0  0  0
   -4.9469    0.5437    0.0000 S   0  0  0  0  0  0  0  0  0  0  0  0
   -6.3565    0.0307    0.0000 N   0  0  0  0  0  0  0  0  0  0  0  0
   -6.6170   -1.4465    0.0000 C   0  0  0  0  0  0  0  0  0  0  0  0
   -6.8774   -2.9237    0.0000 C   0  0  0  0  0  0  0  0  0  0  0  0
   -7.1379   -4.4009    0.0000 C   0  0  0  0  0  0  0  0  0  0  0  0
   -5.4002   -3.1842    0.0000 I   0  0  0  0  0  0  0  0  0  0  0  0
   -8.3546   -2.6632    0.0000 C   0  0  0  0  0  0  0  0  0  0  0  0
   -9.8319   -2.4028    0.0000 C   0  0  0  0  0  0  0  0  0  0  0  0
  -11.3091   -2.1423    0.0000 C   0  0  0  0  0  0  0  0  0  0  0  0
   -8.6151   -4.1405    0.0000 C   0  0  0  0  0  0  0  0  0  0  0  0
   -9.3651   -5.4395    0.0000 N   0  0  0  0  0  0  0  0  0  0  0  0
  -10.1151   -4.1405    0.0000 C   0  0  0  0  0  0  0  0  0  0  0  0
  -11.5247   -4.6535    0.0000 C   0  0  0  0  0  0  0  0  0  0  0  0
   -3.2093    1.7605    0.0000 C   0  0  0  0  0  0  0  0  0  0  0  0
   -3.4697    0.2833    0.0000 O   0  0  0  0  0  0  0  0  0  0  0  0
   -2.3207   -0.6809    0.0000 C   0  0  0  0  0  0  0  0  0  0  0  0
   -1.1716   -1.6451    0.0000 O   0  0  0  0  0  0  0  0  0  0  0  0
   -1.4321   -3.1223    0.0000 O   0  0  0  0  0  0  0  0  0  0  0  0
   -1.7321    1.5000    0.0000 C   0  0  0  0  0  0  0  0  0  0  0  0
   -1.7321    0.0000    0.0000 N   0  0  0  0  0  0  0  0  0  0  0  0
   -0.4330   -0.7500    0.0000 C   0  0  0  0  0  0  0  0  0  0  0  0
   -0.4330    0.7500    0.0000 C   0  0  0  0  0  0  0  0  0  0  0  0
    0.8660    0.0000    0.0000 C   0  0  0  0  0  0  0  0  0  0  0  0
    1.8302    1.1491    0.0000 N   0  0  0  0  0  0  0  0  0  0  0  0
    1.8302   -1.1491    0.0000 O   0  0  0  0  0  0  0  0  0  0  0  0
   -7.7028    6.5100    0.0000 H   0  0  0  0  0  0  0  0  0  0  0  0
   -5.7802    5.6135    0.0000 H   0  0  0  0  0  0  0  0  0  0  0  0
   -8.5993    4.5875    0.0000 H   0  0  0  0  0  0  0  0  0  0  0  0
   -5.2672    4.2040    0.0000 H   0  0  0  0  0  0  0  0  0  0  0  0
   -8.0863    3.1779    0.0000 H   0  0  0  0  0  0  0  0  0  0  0  0
   -4.4260    3.4982    0.0000 H   0  0  0  0  0  0  0  0  0  0  0  0
   -7.5056    0.9949    0.0000 H   0  0  0  0  0  0  0  0  0  0  0  0
   -5.1397   -1.7070    0.0000 H   0  0  0  0  0  0  0  0  0  0  0  0
   -8.0514   -1.0079    0.0000 H   0  0  0  0  0  0  0  0  0  0  0  0
   -7.3984   -5.8781    0.0000 H   0  0  0  0  0  0  0  0  0  0  0  0
   -7.9331   -4.4566    0.0000 H   0  0  0  0  0  0  0  0  0  0  0  0
   -5.6607   -4.6614    0.0000 H   0  0  0  0  0  0  0  0  0  0  0  0
   -8.2762   -1.1653    0.0000 H   0  0  0  0  0  0  0  0  0  0  0  0
   -9.5714   -0.9256    0.0000 H   0  0  0  0  0  0  0  0  0  0  0  0
  -10.4420   -3.7731    0.0000 H   0  0  0  0  0  0  0  0  0  0  0  0
  -12.7863   -1.8818    0.0000 H   0  0  0  0  0  0  0  0  0  0  0  0
  -11.0486   -0.6651    0.0000 H   0  0  0  0  0  0  0  0  0  0  0  0
  -11.7477   -3.5767    0.0000 H   0  0  0  0  0  0  0  0  0  0  0  0
   -7.3716   -4.9793    0.0000 H   0  0  0  0  0  0  0  0  0  0  0  0
   -9.3651   -6.9395    0.0000 H   0  0  0  0  0  0  0  0  0  0  0  0
  -10.7253   -2.7702    0.0000 H   0  0  0  0  0  0  0  0  0  0  0  0
  -12.9342   -5.1665    0.0000 H   0  0  0  0  0  0  0  0  0  0  0  0
  -12.2057   -3.3170    0.0000 H   0  0  0  0  0  0  0  0  0  0  0  0
  -11.0116   -6.0630    0.0000 H   0  0  0  0  0  0  0  0  0  0  0  0
   -2.9488    3.2377    0.0000 H   0  0  0  0  0  0  0  0  0  0  0  0
   -3.2848   -1.8300    0.0000 H   0  0  0  0  0  0  0  0  0  0  0  0
   -1.1071    0.2007    0.0000 H   0  0  0  0  0  0  0  0  0  0  0  0
   -0.2830   -4.0865    0.0000 H   0  0  0  0  0  0  0  0  0  0  0  0
   -1.2190    2.9095    0.0000 H   0  0  0  0  0  0  0  0  0  0  0  0
   -0.4330   -2.2500    0.0000 H   0  0  0  0  0  0  0  0  0  0  0  0
    3.3074    0.8886    0.0000 H   0  0  0  0  0  0  0  0  0  0  0  0
    1.3172    2.5586    0.0000 H   0  0  0  0  0  0  0  0  0  0  0  0
    3.3074   -0.8886    0.0000 H   0  0  0  0  0  0  0  0  0  0  0  0
  1  2  1  0
  2  3  1  0
  3  4  1  0
  4  5  1  0
  5  6  1  0
  6  7  1  0
  7  8  1  0
  8  9  1  0
  8 10  1  1
  8 11  1  0
 11 12  1  0
 12 13  1  0
 11 14  1  0
 14 15  1  0
 15 16  1  0
 16 17  1  0
  4 18  1  0
 18 19  1  0
 19 20  1  0
 20 21  1  0
 21 22  1  0
 18 23  1  0
 23 24  1  0
 24 25  1  0
 25 26  1  0
 26 27  1  0
 27 28  1  0
 27 29  1  6
 16 14  1  0
 26 23  1  0
 26 24  1  6
 27 25  1  0
  1 30  1  0
  1 31  1  0
  1 32  1  0
  2 33  1  0
  2 34  1  0
  4 35  1  6
  6 36  1  0
  7 37  1  0
  7 38  1  0
  9 39  1  0
  9 40  1  0
  9 41  1  0
 11 42  1  6
 12 43  1  0
 12 44  1  0
 13 45  1  0
 13 46  1  0
 13 47  1  0
 14 48  1  6
 15 49  1  0
 16 50  1  6
 17 51  1  0
 17 52  1  0
 17 53  1  0
 18 54  1  1
 20 55  1  0
 20 56  1  0
 22 57  1  0
 23 58  1  6
 25 59  1  1
 28 60  1  0
 28 61  1  0
 29 62  1  0
M  END
$$$$
