
     RDKit          2D

 32 35  0  0  0  0  0  0  0  0999 V2000
    1.8302    1.1491    0.0000 C   0  0  0  0  0  0  0  0  0  0  0  0
    0.8660    0.0000    0.0000 C   0  0  0  0  0  0  0  0  0  0  0  0
    1.8302   -1.1491    0.0000 C   0  0  0  0  0  0  0  0  0  0  0  0
    3.1292   -1.8991    0.0000 C   0  0  0  0  0  0  0  0  0  0  0  0
    3.1292   -0.3991    0.0000 C   0  0  0  0  0  0  0  0  0  0  0  0
    4.6065   -0.1386    0.0000 O   0  0  0  0  0  0  0  0  0  0  0  0
    5.5706   -1.2877    0.0000 O   0  0  0  0  0  0  0  0  0  0  0  0
   -0.4330    0.7500    0.0000 C   0  0  0  0  0  0  0  0  0  0  0  0
   -1.8596    1.2135    0.0000 C   0  0  0  0  0  0  0  0  0  0  0  0
   -3.2862    0.7500    0.0000 C   0  0  0  0  0  0  0  0  0  0  0  0
   -3.2862   -0.7500    0.0000 C   0  0  0  0  0  0  0  0  0  0  0  0
   -1.8596   -1.2135    0.0000 C   0  0  0  0  0  0  0  0  0  0  0  0
   -2.7413    0.0000    0.0000 C   0  0  0  0  0  0  0  0  0  0  0  0
   -0.4330   -0.7500    0.0000 C   0  0  0  0  0  0  0  0  0  0  0  0
    2.7944    2.2981    0.0000 H   0  0  0  0  0  0  0  0  0  0  0  0
    0.8072    2.2461    0.0000 H   0  0  0  0  0  0  0  0  0  0  0  0
    2.5840    0.8896    0.0000 H   0  0  0  0  0  0  0  0  0  0  0  0
    1.0133   -2.4071    0.0000 H   0  0  0  0  0  0  0  0  0  0  0  0
    2.6162   -3.3086    0.0000 H   0  0  0  0  0  0  0  0  0  0  0  0
    4.6065   -2.1595    0.0000 H   0  0  0  0  0  0  0  0  0  0  0  0
    2.9499    0.3777    0.0000 H   0  0  0  0  0  0  0  0  0  0  0  0
    7.0478   -1.0272    0.0000 H   0  0  0  0  0  0  0  0  0  0  0  0
    0.0055    2.1845    0.0000 H   0  0  0  0  0  0  0  0  0  0  0  0
   -2.3231    2.6401    0.0000 H   0  0  0  0  0  0  0  0  0  0  0  0
   -3.5980    2.2172    0.0000 H   0  0  0  0  0  0  0  0  0  0  0  0
   -4.7780    0.5932    0.0000 H   0  0  0  0  0  0  0  0  0  0  0  0
   -4.7780   -0.5932    0.0000 H   0  0  0  0  0  0  0  0  0  0  0  0
   -3.5980   -2.2172    0.0000 H   0  0  0  0  0  0  0  0  0  0  0  0
   -2.3231   -2.6401    0.0000 H   0  0  0  0  0  0  0  0  0  0  0  0
   -4.0657   -0.7041    0.0000 H   0  0  0  0  0  0  0  0  0  0  0  0
   -4.0657    0.7041    0.0000 H   0  0  0  0  0  0  0  0  0  0  0  0
    0.0055   -2.1845    0.0000 H   0  0  0  0  0  0  0  0  0  0  0  0
  1  2  1  0
  2  3  1  0
  3  4  1  0
  4  5  1  0
  5  6  1  0
  6  7  1  0
  2  8  1  0
  8  9  1  0
  9 10  1  0
 10 11  1  0
 11 12  1  0
 12 13  1  0
 12 14  1  0
 14  2  1  0
  5  3  1  0
 14  8  1  0
 13  9  1  0
  1 15  1  0
  1 16  1  0
  1 17  1  0
  3 18  1  0
  4 19  1  0
  4 20  1  0
  5 21  1  0
  7 22  1  0
  8 23  1  0
  9 24  1  0
 10 25  1  0
 10 26  1  0
 11 27  1  0
 11 28  1  0
 12 29  1  0
 13 30  1  0
 13 31  1  0
 14 32  1  0
M  END
$$$$
