
     RDKit          2D

 71 72  0  0  0  0  0  0  0  0999 V2000
    7.2814    4.1451    0.0000 C   0  0  0  0  0  0  0  0  0  0  0  0
    5.8718    3.6321    0.0000 C   0  0  0  0  0  0  0  0  0  0  0  0
    4.7228    4.5963    0.0000 C   0  0  0  0  0  0  0  0  0  0  0  0
    3.5737    5.5604    0.0000 C   0  0  0  0  0  0  0  0  0  0  0  0
    5.6869    5.7453    0.0000 C   0  0  0  0  0  0  0  0  0  0  0  0
    6.6511    6.8944    0.0000 C   0  0  0  0  0  0  0  0  0  0  0  0
    7.6153    8.0435    0.0000 C   0  0  0  0  0  0  0  0  0  0  0  0
    8.5795    9.1925    0.0000 C   0  0  0  0  0  0  0  0  0  0  0  0
    3.7586    3.4472    0.0000 C   0  0  0  0  0  0  0  0  0  0  0  0
    2.7944    2.2981    0.0000 C   0  0  0  0  0  0  0  0  0  0  0  0
    1.8302    1.1491    0.0000 C   0  0  0  0  0  0  0  0  0  0  0  0
    0.8660    0.0000    0.0000 C   0  0  0  0  0  0  0  0  0  0  0  0
   -0.4330    0.7500    0.0000 C   0  0  0  0  0  0  0  0  0  0  0  0
   -0.4330   -0.7500    0.0000 C   0  0  0  0  0  0  0  0  0  0  0  0
    0.0800   -2.1595    0.0000 C   0  0  0  0  0  0  0  0  0  0  0  0
    0.5930   -3.5691    0.0000 C   0  0  0  0  0  0  0  0  0  0  0  0
    1.1061   -4.9786    0.0000 C   0  0  0  0  0  0  0  0  0  0  0  0
   -1.9102   -1.0105    0.0000 C   0  0  0  0  0  0  0  0  0  0  0  0
   -3.3874   -1.2709    0.0000 C   0  0  0  0  0  0  0  0  0  0  0  0
   -4.8646   -1.5314    0.0000 C   0  0  0  0  0  0  0  0  0  0  0  0
   -1.6498   -2.4877    0.0000 C   0  0  0  0  0  0  0  0  0  0  0  0
   -1.3893   -3.9649    0.0000 C   0  0  0  0  0  0  0  0  0  0  0  0
   -1.6498   -5.4421    0.0000 C   0  0  0  0  0  0  0  0  0  0  0  0
   -2.7988   -4.4779    0.0000 C   0  0  0  0  0  0  0  0  0  0  0  0
   -3.9479   -5.4421    0.0000 C   0  0  0  0  0  0  0  0  0  0  0  0
    8.4304    3.1809    0.0000 H   0  0  0  0  0  0  0  0  0  0  0  0
    7.6011    5.1908    0.0000 H   0  0  0  0  0  0  0  0  0  0  0  0
    5.7934    2.1341    0.0000 H   0  0  0  0  0  0  0  0  0  0  0  0
    2.4246    6.5246    0.0000 H   0  0  0  0  0  0  0  0  0  0  0  0
    4.0561    6.3033    0.0000 H   0  0  0  0  0  0  0  0  0  0  0  0
    2.9259    4.9564    0.0000 H   0  0  0  0  0  0  0  0  0  0  0  0
    5.0829    6.3931    0.0000 H   0  0  0  0  0  0  0  0  0  0  0  0
    6.6698    5.2660    0.0000 H   0  0  0  0  0  0  0  0  0  0  0  0
    7.9091    6.0775    0.0000 H   0  0  0  0  0  0  0  0  0  0  0  0
    5.5020    7.8586    0.0000 H   0  0  0  0  0  0  0  0  0  0  0  0
    6.4662    9.0076    0.0000 H   0  0  0  0  0  0  0  0  0  0  0  0
    8.7644    7.0793    0.0000 H   0  0  0  0  0  0  0  0  0  0  0  0
    9.5437   10.3416    0.0000 H   0  0  0  0  0  0  0  0  0  0  0  0
    9.7285    8.2284    0.0000 H   0  0  0  0  0  0  0  0  0  0  0  0
    7.4304   10.1567    0.0000 H   0  0  0  0  0  0  0  0  0  0  0  0
    4.7815    2.3501    0.0000 H   0  0  0  0  0  0  0  0  0  0  0  0
    3.0157    3.9296    0.0000 H   0  0  0  0  0  0  0  0  0  0  0  0
    1.6453    3.2623    0.0000 H   0  0  0  0  0  0  0  0  0  0  0  0
    3.9435    1.3340    0.0000 H   0  0  0  0  0  0  0  0  0  0  0  0
    0.9095    2.1364    0.0000 H   0  0  0  0  0  0  0  0  0  0  0  0
    2.9793    0.1849    0.0000 H   0  0  0  0  0  0  0  0  0  0  0  0
    1.9631   -1.0230    0.0000 H   0  0  0  0  0  0  0  0  0  0  0  0
   -1.8675    1.1886    0.0000 H   0  0  0  0  0  0  0  0  0  0  0  0
   -0.1294    2.0654    0.0000 H   0  0  0  0  0  0  0  0  0  0  0  0
   -1.0391   -2.9145    0.0000 H   0  0  0  0  0  0  0  0  0  0  0  0
    1.5416   -1.8222    0.0000 H   0  0  0  0  0  0  0  0  0  0  0  0
   -0.6505   -4.4079    0.0000 H   0  0  0  0  0  0  0  0  0  0  0  0
    2.0026   -3.0560    0.0000 H   0  0  0  0  0  0  0  0  0  0  0  0
    1.6191   -6.3882    0.0000 H   0  0  0  0  0  0  0  0  0  0  0  0
    2.5156   -4.4656    0.0000 H   0  0  0  0  0  0  0  0  0  0  0  0
   -0.2304   -5.6596    0.0000 H   0  0  0  0  0  0  0  0  0  0  0  0
   -2.3488    0.4240    0.0000 H   0  0  0  0  0  0  0  0  0  0  0  0
   -3.6479    0.2063    0.0000 H   0  0  0  0  0  0  0  0  0  0  0  0
   -3.4922   -2.7673    0.0000 H   0  0  0  0  0  0  0  0  0  0  0  0
   -6.3419   -1.7919    0.0000 H   0  0  0  0  0  0  0  0  0  0  0  0
   -5.1251   -0.0542    0.0000 H   0  0  0  0  0  0  0  0  0  0  0  0
   -4.6042   -3.0086    0.0000 H   0  0  0  0  0  0  0  0  0  0  0  0
   -3.1270   -2.7482    0.0000 H   0  0  0  0  0  0  0  0  0  0  0  0
   -0.1534   -2.5924    0.0000 H   0  0  0  0  0  0  0  0  0  0  0  0
    0.0661   -4.3279    0.0000 H   0  0  0  0  0  0  0  0  0  0  0  0
   -0.3133   -6.1231    0.0000 H   0  0  0  0  0  0  0  0  0  0  0  0
   -2.2358   -6.8229    0.0000 H   0  0  0  0  0  0  0  0  0  0  0  0
   -3.8409   -3.3990    0.0000 H   0  0  0  0  0  0  0  0  0  0  0  0
   -5.0970   -6.4063    0.0000 H   0  0  0  0  0  0  0  0  0  0  0  0
   -4.9121   -4.2930    0.0000 H   0  0  0  0  0  0  0  0  0  0  0  0
   -3.1310   -6.7001    0.0000 H   0  0  0  0  0  0  0  0  0  0  0  0
  1  2  2  3
  2  3  1  0
  3  4  1  0
  3  5  1  0
  5  6  1  0
  6  7  1  0
  7  8  1  0
  3  9  1  0
  9 10  1  0
 10 11  1  0
 11 12  1  0
 12 13  1  0
 13 14  1  0
 14 15  1  0
 15 16  1  0
 16 17  1  0
 14 18  1  0
 18 19  1  0
 19 20  1  0
 18 21  1  0
 21 22  1  0
 22 23  1  0
 23 24  1  0
 24 25  1  0
 14 12  1  0
 24 22  1  0
  1 26  1  0
  1 27  1  0
  2 28  1  0
  4 29  1  0
  4 30  1  0
  4 31  1  0
  5 32  1  0
  5 33  1  0
  6 34  1  0
  6 35  1  0
  7 36  1  0
  7 37  1  0
  8 38  1  0
  8 39  1  0
  8 40  1  0
  9 41  1  0
  9 42  1  0
 10 43  1  0
 10 44  1  0
 11 45  1  0
 11 46  1  0
 12 47  1  0
 13 48  1  0
 13 49  1  0
 15 50  1  0
 15 51  1  0
 16 52  1  0
 16 53  1  0
 17 54  1  0
 17 55  1  0
 17 56  1  0
 18 57  1  0
 19 58  1  0
 19 59  1  0
 20 60  1  0
 20 61  1  0
 20 62  1  0
 21 63  1  0
 21 64  1  0
 22 65  1  0
 23 66  1  0
 23 67  1  0
 24 68  1  0
 25 69  1  0
 25 70  1  0
 25 71  1  0
M  END
$$$$
