
     RDKit          2D

 24 25  0  0  0  0  0  0  0  0999 V2000
   -3.4755    4.4114    0.0000 C   0  0  0  0  0  0  0  0  0  0  0  0
   -4.6246    3.4472    0.0000 C   0  0  0  0  0  0  0  0  0  0  0  0
   -5.7737    2.4830    0.0000 C   0  0  0  0  0  0  0  0  0  0  0  0
   -3.6604    2.2981    0.0000 C   0  0  0  0  0  0  0  0  0  0  0  0
   -2.6962    1.1491    0.0000 C   0  0  0  0  0  0  0  0  0  0  0  0
   -1.7321    0.0000    0.0000 C   0  0  0  0  0  0  0  0  0  0  0  0
   -0.4330    0.7500    0.0000 C   0  0  0  0  0  0  0  0  0  0  0  0
    0.8660    0.0000    0.0000 O   0  0  0  0  0  0  0  0  0  0  0  0
   -0.4330   -0.7500    0.0000 C   0  0  0  0  0  0  0  0  0  0  0  0
   -0.4330   -2.2500    0.0000 O   0  0  0  0  0  0  0  0  0  0  0  0
   -2.3265    5.3756    0.0000 H   0  0  0  0  0  0  0  0  0  0  0  0
   -4.4397    5.5604    0.0000 H   0  0  0  0  0  0  0  0  0  0  0  0
   -2.8277    3.8073    0.0000 H   0  0  0  0  0  0  0  0  0  0  0  0
   -5.5888    4.5963    0.0000 H   0  0  0  0  0  0  0  0  0  0  0  0
   -6.9227    1.5188    0.0000 H   0  0  0  0  0  0  0  0  0  0  0  0
   -6.7378    3.6321    0.0000 H   0  0  0  0  0  0  0  0  0  0  0  0
   -5.2913    1.7402    0.0000 H   0  0  0  0  0  0  0  0  0  0  0  0
   -4.2645    1.6503    0.0000 H   0  0  0  0  0  0  0  0  0  0  0  0
   -2.9176    2.7805    0.0000 H   0  0  0  0  0  0  0  0  0  0  0  0
   -1.5472    2.1132    0.0000 H   0  0  0  0  0  0  0  0  0  0  0  0
   -3.8453    0.1849    0.0000 H   0  0  0  0  0  0  0  0  0  0  0  0
   -2.6962   -1.1491    0.0000 H   0  0  0  0  0  0  0  0  0  0  0  0
   -0.4330    2.2500    0.0000 H   0  0  0  0  0  0  0  0  0  0  0  0
    0.8660   -3.0000    0.0000 H   0  0  0  0  0  0  0  0  0  0  0  0
  1  2  1  0
  2  3  1  0
  2  4  1  0
  4  5  1  0
  5  6  1  0
  6  7  1  0
  7  8  1  0
  8  9  1  0
  9 10  1  0
  9  6  1  0
  9  7  1  0
  1 11  1  0
  1 12  1  0
  1 13  1  0
  2 14  1  0
  3 15  1  0
  3 16  1  0
  3 17  1  0
  4 18  1  0
  4 19  1  0
  5 20  1  0
  5 21  1  0
  6 22  1  0
  7 23  1  0
 10 24  1  0
M  END
$$$$
