
     RDKit          2D

 50 52  0  0  0  0  0  0  0  0999 V2000
   -5.9435  -13.9186    0.0000 C   0  0  0  0  0  0  0  0  0  0  0  0
   -4.4435  -13.9186    0.0000 C   0  0  0  0  0  0  0  0  0  0  0  0
   -3.6935  -12.6195    0.0000 C   0  0  0  0  0  0  0  0  0  0  0  0
   -2.9435  -11.3205    0.0000 N   0  0  0  0  0  0  0  0  0  0  0  0
   -1.4435  -11.3205    0.0000 C   0  0  0  0  0  0  0  0  0  0  0  0
   -0.6935  -10.0214    0.0000 C   0  0  0  0  0  0  0  0  0  0  0  0
   -1.4435   -8.7224    0.0000 C   0  0  0  0  0  0  0  0  0  0  0  0
   -2.1935   -7.4234    0.0000 B   0  0  0  0  0  0  0  0  0  0  0  0
   -3.6935   -7.4234    0.0000 N   0  0  0  0  0  2  0  0  0  0  0  0
   -4.4435   -6.1243    0.0000 C   0  0  0  0  0  0  0  0  0  0  0  0
   -3.1444   -5.3743    0.0000 O   0  0  0  0  0  1  0  0  0  0  0  0
   -5.1935   -4.8253    0.0000 N   0  0  0  0  0  0  0  0  0  0  0  0
   -4.4435   -3.5262    0.0000 C   0  0  0  0  0  0  0  0  0  0  0  0
   -3.6935   -2.2272    0.0000 C   0  0  0  0  0  0  0  0  0  0  0  0
   -4.8426   -1.2630    0.0000 C   0  0  0  0  0  0  0  0  0  0  0  0
   -3.4330   -0.7500    0.0000 C   0  0  0  0  0  0  0  0  0  0  0  0
   -1.9330   -0.7500    0.0000 C   0  0  0  0  0  0  0  0  0  0  0  0
   -1.9330    0.7500    0.0000 C   0  0  0  0  0  0  0  0  0  0  0  0
   -0.4330    0.7500    0.0000 B   0  0  0  0  0  0  0  0  0  0  0  0
    0.8660    0.0000    0.0000 C   0  0  0  0  0  0  0  0  0  0  0  0
   -0.4330   -0.7500    0.0000 C   0  0  0  0  0  0  0  0  0  0  0  0
   -0.6935  -12.6195    0.0000 C   0  0  0  0  0  0  0  0  0  0  0  0
    0.0565  -13.9186    0.0000 S   0  0  0  0  0  0  0  0  0  0  0  0
   -6.6935  -15.2176    0.0000 H   0  0  0  0  0  0  0  0  0  0  0  0
   -6.6935  -12.6195    0.0000 H   0  0  0  0  0  0  0  0  0  0  0  0
   -3.6935  -15.2176    0.0000 H   0  0  0  0  0  0  0  0  0  0  0  0
   -2.7232  -13.3507    0.0000 H   0  0  0  0  0  0  0  0  0  0  0  0
   -4.9925  -11.8695    0.0000 H   0  0  0  0  0  0  0  0  0  0  0  0
   -3.6935  -10.0214    0.0000 H   0  0  0  0  0  0  0  0  0  0  0  0
    0.8065  -10.0214    0.0000 H   0  0  0  0  0  0  0  0  0  0  0  0
   -0.1444   -7.9724    0.0000 H   0  0  0  0  0  0  0  0  0  0  0  0
   -2.7425   -9.4724    0.0000 H   0  0  0  0  0  0  0  0  0  0  0  0
   -1.4435   -6.1243    0.0000 H   0  0  0  0  0  0  0  0  0  0  0  0
   -5.7425   -6.8743    0.0000 H   0  0  0  0  0  0  0  0  0  0  0  0
   -6.6935   -4.8253    0.0000 H   0  0  0  0  0  0  0  0  0  0  0  0
   -5.6862   -2.9988    0.0000 H   0  0  0  0  0  0  0  0  0  0  0  0
   -3.1444   -4.2762    0.0000 H   0  0  0  0  0  0  0  0  0  0  0  0
   -2.4906   -2.8401    0.0000 H   0  0  0  0  0  0  0  0  0  0  0  0
   -5.5926    0.0360    0.0000 H   0  0  0  0  0  0  0  0  0  0  0  0
   -5.9748   -1.9983    0.0000 H   0  0  0  0  0  0  0  0  0  0  0  0
   -3.7527    0.2957    0.0000 H   0  0  0  0  0  0  0  0  0  0  0  0
   -1.7685   -2.0899    0.0000 H   0  0  0  0  0  0  0  0  0  0  0  0
   -1.9330    2.2500    0.0000 H   0  0  0  0  0  0  0  0  0  0  0  0
   -3.0184    0.8833    0.0000 H   0  0  0  0  0  0  0  0  0  0  0  0
    1.8302    1.1491    0.0000 H   0  0  0  0  0  0  0  0  0  0  0  0
    1.8302   -1.1491    0.0000 H   0  0  0  0  0  0  0  0  0  0  0  0
   -0.0448   -2.1989    0.0000 H   0  0  0  0  0  0  0  0  0  0  0  0
   -1.6638  -13.3507    0.0000 H   0  0  0  0  0  0  0  0  0  0  0  0
    0.6056  -11.8695    0.0000 H   0  0  0  0  0  0  0  0  0  0  0  0
    1.5565  -13.9186    0.0000 H   0  0  0  0  0  0  0  0  0  0  0  0
  1  2  2  3
  2  3  1  0
  3  4  1  0
  4  5  1  0
  5  6  2  3
  6  7  1  0
  7  8  1  0
  8  9  1  0
  9 10  1  0
 10 11  1  0
 10 12  1  0
 12 13  1  0
 13 14  1  0
 14 15  1  0
 15 16  1  0
 16 17  1  0
 17 18  1  0
 18 19  1  0
 19 20  1  0
 20 21  1  0
  5 22  1  0
 22 23  1  0
 16 14  1  0
 21 17  1  0
 21 19  1  0
  1 24  1  0
  1 25  1  0
  2 26  1  0
  3 27  1  0
  3 28  1  0
  4 29  1  0
  6 30  1  0
  7 31  1  0
  7 32  1  0
  8 33  1  0
 10 34  1  6
 12 35  1  0
 13 36  1  0
 13 37  1  0
 14 38  1  1
 15 39  1  0
 15 40  1  0
 16 41  1  6
 17 42  1  1
 18 43  1  0
 18 44  1  0
 20 45  1  0
 20 46  1  0
 21 47  1  1
 22 48  1  0
 22 49  1  0
 23 50  1  0
M  RAD  2   9   2  11   2
M  END
$$$$
