
     RDKit          2D

 21 24  0  0  0  0  0  0  0  0999 V2000
    5.3012   -4.0607    0.0000 C   0  0  0  0  0  0  0  0  0  0  0  0
    3.8523   -4.4489    0.0000 C   0  0  0  0  0  0  0  0  0  0  0  0
    3.4641   -3.0000    0.0000 N   0  0  0  0  0  0  0  0  0  0  0  0
    2.1651   -2.2500    0.0000 N   0  0  0  0  0  0  0  0  0  0  0  0
    2.1651   -0.7500    0.0000 N   0  0  0  0  0  0  0  0  0  0  0  0
    0.8660    0.0000    0.0000 C   0  0  0  0  0  0  0  0  0  0  0  0
   -0.4330    0.7500    0.0000 C   0  0  0  0  0  0  0  0  0  0  0  0
   -0.4330   -0.7500    0.0000 C   0  0  0  0  0  0  0  0  0  0  0  0
    0.8660    1.5000    0.0000 C   0  0  0  0  0  0  0  0  0  0  0  0
    4.9130   -2.6118    0.0000 C   0  0  0  0  0  0  0  0  0  0  0  0
    6.7501   -3.6724    0.0000 H   0  0  0  0  0  0  0  0  0  0  0  0
    5.6894   -5.5095    0.0000 H   0  0  0  0  0  0  0  0  0  0  0  0
    4.2406   -5.8978    0.0000 H   0  0  0  0  0  0  0  0  0  0  0  0
    2.4034   -4.8371    0.0000 H   0  0  0  0  0  0  0  0  0  0  0  0
    0.8660   -3.0000    0.0000 H   0  0  0  0  0  0  0  0  0  0  0  0
    3.4641    0.0000    0.0000 H   0  0  0  0  0  0  0  0  0  0  0  0
   -1.7321    1.5000    0.0000 H   0  0  0  0  0  0  0  0  0  0  0  0
   -1.1830   -2.0490    0.0000 H   0  0  0  0  0  0  0  0  0  0  0  0
    1.6160    2.7990    0.0000 H   0  0  0  0  0  0  0  0  0  0  0  0
    4.5248   -1.1629    0.0000 H   0  0  0  0  0  0  0  0  0  0  0  0
    6.3619   -2.2235    0.0000 H   0  0  0  0  0  0  0  0  0  0  0  0
  1  2  1  0
  2  3  1  0
  3  4  1  0
  4  5  1  0
  5  6  1  0
  6  7  1  0
  7  8  1  0
  8  9  1  0
  3 10  1  0
 10  1  1  0
  8  6  1  0
  9  6  1  0
  9  7  1  0
  1 11  1  0
  1 12  1  0
  2 13  1  0
  2 14  1  0
  4 15  1  0
  5 16  1  0
  7 17  1  0
  8 18  1  0
  9 19  1  0
 10 20  1  0
 10 21  1  0
M  END
$$$$
