
     RDKit          2D

 44 45  0  0  0  0  0  0  0  0999 V2000
    4.2426    1.0607    0.0000 C   0  0  0  0  0  0  0  0  0  0  0  0
    3.1820   -0.0000    0.0000 C   0  0  0  0  0  0  0  0  0  0  0  0
    2.1213   -1.0607    0.0000 C   0  0  0  0  0  0  0  0  0  0  0  0
    1.0607   -2.1213    0.0000 C   0  0  0  0  0  0  0  0  0  0  0  0
    0.0000   -3.1820    0.0000 C   0  0  0  0  0  0  0  0  0  0  0  0
   -1.0607   -4.2426    0.0000 C   0  0  0  0  0  0  0  0  0  0  0  0
   -2.1213   -5.3033    0.0000 C   0  0  0  0  0  0  0  0  0  0  0  0
   -3.1820   -6.3640    0.0000 O   0  0  0  0  0  0  0  0  0  0  0  0
   -0.0000   -1.0607    0.0000 C   0  0  0  0  0  0  0  0  0  0  0  0
   -1.0607   -2.1213    0.0000 C   0  0  0  0  0  0  0  0  0  0  0  0
   -2.1213   -1.0607    0.0000 C   0  0  0  0  0  0  0  0  0  0  0  0
   -1.0607    0.0000    0.0000 C   0  0  0  0  0  0  0  0  0  0  0  0
    0.0000    1.0607    0.0000 O   0  0  0  0  0  0  0  0  0  0  0  0
    4.2426   -1.0607    0.0000 C   0  0  0  0  0  0  0  0  0  0  0  0
    5.3033   -2.1213    0.0000 C   0  0  0  0  0  0  0  0  0  0  0  0
    6.5320   -1.2610    0.0000 O   0  0  0  0  0  0  0  0  0  0  0  0
    5.9372   -3.4808    0.0000 C   0  0  0  0  0  0  0  0  0  0  0  0
    4.4429   -3.3500    0.0000 S   0  0  0  0  0  0  0  0  0  0  0  0
    5.3033    2.1213    0.0000 H   0  0  0  0  0  0  0  0  0  0  0  0
    3.1820    2.1213    0.0000 H   0  0  0  0  0  0  0  0  0  0  0  0
    5.4247    0.1372    0.0000 H   0  0  0  0  0  0  0  0  0  0  0  0
    2.1213    1.0607    0.0000 H   0  0  0  0  0  0  0  0  0  0  0  0
    1.1979    0.1214    0.0000 H   0  0  0  0  0  0  0  0  0  0  0  0
    3.0448   -2.2427    0.0000 H   0  0  0  0  0  0  0  0  0  0  0  0
    2.1213   -3.1820    0.0000 H   0  0  0  0  0  0  0  0  0  0  0  0
    1.0607   -4.2426    0.0000 H   0  0  0  0  0  0  0  0  0  0  0  0
   -0.6833   -2.7714    0.0000 H   0  0  0  0  0  0  0  0  0  0  0  0
   -0.0000   -5.3033    0.0000 H   0  0  0  0  0  0  0  0  0  0  0  0
   -2.2427   -3.3192    0.0000 H   0  0  0  0  0  0  0  0  0  0  0  0
   -3.1820   -4.2426    0.0000 H   0  0  0  0  0  0  0  0  0  0  0  0
   -1.0607   -6.3640    0.0000 H   0  0  0  0  0  0  0  0  0  0  0  0
   -2.7938   -7.8128    0.0000 H   0  0  0  0  0  0  0  0  0  0  0  0
    0.9235    0.1214    0.0000 H   0  0  0  0  0  0  0  0  0  0  0  0
   -2.2427   -3.0448    0.0000 H   0  0  0  0  0  0  0  0  0  0  0  0
   -0.2882   -3.4071    0.0000 H   0  0  0  0  0  0  0  0  0  0  0  0
   -3.1820   -0.0000    0.0000 H   0  0  0  0  0  0  0  0  0  0  0  0
   -3.1820   -2.1213    0.0000 H   0  0  0  0  0  0  0  0  0  0  0  0
   -2.1213    1.0607    0.0000 H   0  0  0  0  0  0  0  0  0  0  0  0
   -0.3882    2.5095    0.0000 H   0  0  0  0  0  0  0  0  0  0  0  0
    5.4247   -0.1372    0.0000 H   0  0  0  0  0  0  0  0  0  0  0  0
    3.3192   -2.2427    0.0000 H   0  0  0  0  0  0  0  0  0  0  0  0
    7.8915   -1.8949    0.0000 H   0  0  0  0  0  0  0  0  0  0  0  0
    7.3861   -3.0926    0.0000 H   0  0  0  0  0  0  0  0  0  0  0  0
    6.0680   -4.9751    0.0000 H   0  0  0  0  0  0  0  0  0  0  0  0
  1  2  1  0
  2  3  1  0
  3  4  1  0
  4  5  1  0
  5  6  1  0
  6  7  1  0
  7  8  1  0
  4  9  1  0
  9 10  1  0
 10 11  1  0
 11 12  1  0
 12 13  1  0
  2 14  1  0
 14 15  1  0
 15 16  1  0
 15 17  1  0
 17 18  1  0
 12  9  1  0
 18 15  1  0
  1 19  1  0
  1 20  1  0
  1 21  1  0
  2 22  1  0
  3 23  1  0
  3 24  1  0
  4 25  1  0
  5 26  1  0
  5 27  1  0
  6 28  1  0
  6 29  1  0
  7 30  1  0
  7 31  1  0
  8 32  1  0
  9 33  1  0
 10 34  1  0
 10 35  1  0
 11 36  1  0
 11 37  1  0
 12 38  1  0
 13 39  1  0
 14 40  1  0
 14 41  1  0
 16 42  1  0
 17 43  1  0
 17 44  1  0
M  END
$$$$
