
     RDKit          2D

 20 20  0  0  0  0  0  0  0  0999 V2000
    3.2455    4.8567    0.0000 C   0  0  0  0  0  0  0  0  0  0  0  0
    3.7586    3.4472    0.0000 C   0  0  0  0  0  0  0  0  0  0  0  0
    2.7944    2.2981    0.0000 C   0  0  0  0  0  0  0  0  0  0  0  0
    1.6453    3.2623    0.0000 Cl  0  0  0  0  0  0  0  0  0  0  0  0
    1.8302    1.1491    0.0000 C   0  0  0  0  0  0  0  0  0  0  0  0
    0.8660    0.0000    0.0000 C   0  0  0  0  0  0  0  0  0  0  0  0
   -0.4330    0.7500    0.0000 O   0  0  0  0  0  0  0  0  0  0  0  0
    1.8302   -1.1491    0.0000 C   0  0  0  0  0  0  0  0  0  0  0  0
    0.3530   -1.4095    0.0000 C   0  0  0  0  0  0  0  0  0  0  0  0
    4.2097    6.0058    0.0000 H   0  0  0  0  0  0  0  0  0  0  0  0
    1.7683    5.1172    0.0000 H   0  0  0  0  0  0  0  0  0  0  0  0
    5.2358    3.1867    0.0000 H   0  0  0  0  0  0  0  0  0  0  0  0
    3.9435    1.3340    0.0000 H   0  0  0  0  0  0  0  0  0  0  0  0
    0.6811    2.1132    0.0000 H   0  0  0  0  0  0  0  0  0  0  0  0
    2.9624    0.4138    0.0000 H   0  0  0  0  0  0  0  0  0  0  0  0
   -1.7321    0.0000    0.0000 H   0  0  0  0  0  0  0  0  0  0  0  0
    2.3432   -2.5586    0.0000 H   0  0  0  0  0  0  0  0  0  0  0  0
    3.0729   -0.6216    0.0000 H   0  0  0  0  0  0  0  0  0  0  0  0
   -1.1242   -1.1491    0.0000 H   0  0  0  0  0  0  0  0  0  0  0  0
    0.3530   -2.9095    0.0000 H   0  0  0  0  0  0  0  0  0  0  0  0
  1  2  2  3
  2  3  1  0
  3  4  1  0
  3  5  1  0
  5  6  1  0
  6  7  1  0
  6  8  1  0
  8  9  1  0
  9  6  1  0
  1 10  1  0
  1 11  1  0
  2 12  1  0
  3 13  1  0
  5 14  1  0
  5 15  1  0
  7 16  1  0
  8 17  1  0
  8 18  1  0
  9 19  1  0
  9 20  1  0
M  END
$$$$
