
     RDKit          3D

 29 34  0  0  0  0  0  0  0  0999 V2000
   19.1448  -24.5023  -14.8708 O   0  0  0  0  0  0  0  0  0  0  0  0
   13.9429  -24.4486  -16.6301 C   0  0  0  0  0  0  0  0  0  0  0  0
   18.0486  -23.8179  -15.1572 O   0  0  0  0  0  0  0  0  0  0  0  0
   15.2403  -24.1748  -15.9887 C   0  0  0  0  0  0  0  0  0  0  0  0
   15.5212  -22.7181  -15.8044 C   0  0  0  0  0  0  0  0  0  0  0  0
   12.8380  -24.7634  -17.1197 C   0  0  0  0  0  0  0  0  0  0  0  0
   16.3321  -23.5151  -16.8521 C   0  0  0  0  0  0  0  0  0  0  0  0
   19.4238  -24.2231  -18.9427 C   0  0  0  0  0  0  0  0  0  0  0  0
   18.9914  -25.6380  -19.2748 C   0  0  0  0  0  0  0  0  0  0  0  0
   17.2277  -28.2746  -19.7672 C   0  0  0  0  0  0  0  0  0  0  0  0
   18.9261  -23.7618  -17.4843 C   0  0  0  0  0  0  0  0  0  0  0  0
   17.7008  -24.1540  -16.4788 C   0  0  0  0  0  0  0  0  0  0  0  0
   18.8211  -22.2023  -17.7203 C   0  0  0  0  0  0  0  0  0  0  0  0
   16.2223  -29.3505  -19.2689 C   0  0  0  0  0  0  0  0  0  0  0  0
   20.0778  -21.3498  -17.9687 C   0  0  0  0  0  0  0  0  0  0  0  0
   15.2219  -28.6562  -18.3403 C   0  0  0  0  0  0  0  0  0  0  0  0
   21.2662  -23.1664  -20.4788 C   0  0  0  0  0  0  0  0  0  0  0  0
   17.4907  -25.7473  -19.5641 C   0  0  0  0  0  0  0  0  0  0  0  0
   13.8258  -29.1980  -18.0180 C   0  0  0  0  0  0  0  0  0  0  0  0
   16.9508  -27.0219  -18.9230 C   0  0  0  0  0  0  0  0  0  0  0  0
   13.0154  -29.6490  -19.2752 C   0  0  0  0  0  0  0  0  0  0  0  0
   20.5081  -21.1911  -20.0909 Sb  0  0  0  0  0  3  0  0  0  0  0  0
   11.7514  -27.5916  -20.1185 C   0  0  0  0  0  0  0  0  0  0  0  0
   11.6161  -28.9502  -19.3970 C   0  0  0  0  0  0  0  0  0  0  0  0
   16.3403  -29.6103  -17.7901 C   0  0  0  0  0  0  0  0  0  0  0  0
   19.4981  -25.1898  -17.8720 C   0  0  0  0  0  0  0  0  0  0  0  0
   10.4128  -26.9026  -20.2827 C   0  0  0  0  0  0  0  0  0  0  0  0
   15.4651  -27.1416  -18.5804 C   0  0  0  0  0  0  0  0  0  0  0  0
   20.9732  -24.0285  -19.2339 C   0  0  0  0  0  0  0  0  0  0  0  0
  3  1  1  0
  4  2  1  0
  5  4  1  0
  6  2  3  0
  7  4  1  0
  7  5  1  0
  9  8  1  0
 11  8  1  0
 12  3  1  0
 12  7  1  0
 12 11  1  0
 13 11  1  0
 14 10  1  0
 15 13  1  0
 16 14  1  0
 18  9  1  0
 19 16  1  0
 20 10  1  0
 20 18  1  0
 21 19  1  0
 22 15  1  0
 22 17  1  0
 24 21  1  0
 24 23  1  0
 25 14  1  0
 25 16  1  0
 26  8  1  0
 26  9  1  0
 26 11  1  0
 27 23  1  0
 28 16  1  0
 28 20  1  0
 29  8  1  0
 29 17  1  0
M  END
$$$$
