
     RDKit          2D

 42 46  0  0  0  0  0  0  0  0999 V2000
   -7.8924   -4.9472    0.0000 C   0  0  0  0  0  0  0  0  0  0  0  0
   -8.8566   -3.7981    0.0000 C   0  0  0  0  0  0  0  0  0  0  0  0
  -10.1556   -4.5481    0.0000 C   0  0  0  0  0  0  0  0  0  0  0  0
  -11.4546   -3.7981    0.0000 C   0  0  0  0  0  0  0  0  0  0  0  0
  -12.7537   -4.5481    0.0000 O   0  0  0  0  0  0  0  0  0  0  0  0
   -9.3696   -2.3886    0.0000 C   0  0  0  0  0  0  0  0  0  0  0  0
   -7.8924   -2.6491    0.0000 C   0  0  0  0  0  0  0  0  0  0  0  0
   -6.5933   -3.3991    0.0000 C   0  0  0  0  0  0  0  0  0  0  0  0
   -5.2943   -4.1491    0.0000 C   0  0  0  0  0  0  0  0  0  0  0  0
   -3.8171   -4.4095    0.0000 C   0  0  0  0  0  0  0  0  0  0  0  0
   -4.3301   -3.0000    0.0000 C   0  0  0  0  0  0  0  0  0  0  0  0
   -3.0311   -2.2500    0.0000 C   0  0  0  0  0  0  0  0  0  0  0  0
   -1.7321   -1.5000    0.0000 C   0  0  0  0  0  0  0  0  0  0  0  0
   -0.4330   -2.2500    0.0000 C   0  0  0  0  0  0  0  0  0  0  0  0
    0.8660   -1.5000    0.0000 C   0  0  0  0  0  0  0  0  0  0  0  0
    0.8660    0.0000    0.0000 C   0  0  0  0  0  0  0  0  0  0  0  0
   -0.4330    0.7500    0.0000 C   0  0  0  0  0  0  0  0  0  0  0  0
   -0.4330   -0.7500    0.0000 C   0  0  0  0  0  0  0  0  0  0  0  0
   -1.7321    0.0000    0.0000 N   0  0  0  0  0  0  0  0  0  0  0  0
   -6.9282   -6.0963    0.0000 H   0  0  0  0  0  0  0  0  0  0  0  0
   -9.0415   -5.9114    0.0000 H   0  0  0  0  0  0  0  0  0  0  0  0
   -7.1759   -4.5978    0.0000 H   0  0  0  0  0  0  0  0  0  0  0  0
  -10.1556   -6.0481    0.0000 H   0  0  0  0  0  0  0  0  0  0  0  0
  -11.6027   -2.5922    0.0000 H   0  0  0  0  0  0  0  0  0  0  0  0
  -14.0527   -3.7981    0.0000 H   0  0  0  0  0  0  0  0  0  0  0  0
   -9.3696   -0.8886    0.0000 H   0  0  0  0  0  0  0  0  0  0  0  0
  -10.5829   -2.4521    0.0000 H   0  0  0  0  0  0  0  0  0  0  0  0
   -7.3794   -1.2395    0.0000 H   0  0  0  0  0  0  0  0  0  0  0  0
   -6.0073   -2.0183    0.0000 H   0  0  0  0  0  0  0  0  0  0  0  0
   -6.8130   -4.1654    0.0000 H   0  0  0  0  0  0  0  0  0  0  0  0
   -5.8073   -5.5586    0.0000 H   0  0  0  0  0  0  0  0  0  0  0  0
   -3.8171   -5.9095    0.0000 H   0  0  0  0  0  0  0  0  0  0  0  0
   -2.3192   -4.3311    0.0000 H   0  0  0  0  0  0  0  0  0  0  0  0
   -5.1471   -1.7420    0.0000 H   0  0  0  0  0  0  0  0  0  0  0  0
   -3.7811   -0.9510    0.0000 H   0  0  0  0  0  0  0  0  0  0  0  0
   -2.1283   -3.4479    0.0000 H   0  0  0  0  0  0  0  0  0  0  0  0
   -0.4330   -3.7500    0.0000 H   0  0  0  0  0  0  0  0  0  0  0  0
    2.3432   -1.2395    0.0000 H   0  0  0  0  0  0  0  0  0  0  0  0
    1.3791   -2.9095    0.0000 H   0  0  0  0  0  0  0  0  0  0  0  0
    2.3660    0.0000    0.0000 H   0  0  0  0  0  0  0  0  0  0  0  0
   -0.4330    2.2500    0.0000 H   0  0  0  0  0  0  0  0  0  0  0  0
   -0.0701   -2.2054    0.0000 H   0  0  0  0  0  0  0  0  0  0  0  0
  2  1  1  6
  2  3  1  0
  3  4  2  3
  4  5  1  0
  2  6  1  0
  6  7  1  0
  7  8  1  0
  8  9  1  0
  9 10  1  0
 10 11  1  0
 11 12  1  0
 12 13  1  0
 13 14  2  0
 14 15  1  0
 15 16  1  0
 16 17  1  0
 17 18  1  0
 18 19  1  0
  7  2  1  0
 11  9  1  0
 19 13  1  0
 18 16  1  0
 19 17  1  0
  1 20  1  0
  1 21  1  0
  1 22  1  0
  3 23  1  0
  4 24  1  0
  5 25  1  0
  6 26  1  0
  6 27  1  0
  7 28  1  1
  8 29  1  0
  8 30  1  0
  9 31  1  1
 10 32  1  0
 10 33  1  0
 11 34  1  6
 12 35  1  0
 12 36  1  0
 14 37  1  0
 15 38  1  0
 15 39  1  0
 16 40  1  6
 17 41  1  6
 18 42  1  6
M  END
$$$$
