
     RDKit          2D

 56 57  0  0  0  0  0  0  0  0999 V2000
    2.9541   -2.4003    0.0000 C   0  0  0  0  0  0  0  0  0  0  0  0
    3.1499   -0.9131    0.0000 C   0  0  0  0  0  0  0  0  0  0  0  0
    4.5357   -0.3391    0.0000 C   0  0  0  0  0  0  0  0  0  0  0  0
    5.9215    0.2349    0.0000 C   0  0  0  0  0  0  0  0  0  0  0  0
    6.1173    1.7221    0.0000 C   0  0  0  0  0  0  0  0  0  0  0  0
    7.5031    2.2961    0.0000 C   0  0  0  0  0  0  0  0  0  0  0  0
    8.8889    2.8701    0.0000 C   0  0  0  0  0  0  0  0  0  0  0  0
   10.2748    3.4442    0.0000 C   0  0  0  0  0  0  0  0  0  0  0  0
    1.9598    0.0000    0.0000 C   0  0  0  0  0  0  0  0  0  0  0  0
    1.3858   -1.3858    0.0000 C   0  0  0  0  0  0  0  0  0  0  0  0
   -0.0000   -1.9598    0.0000 C   0  0  0  0  0  0  0  0  0  0  0  0
   -1.3858   -1.3858    0.0000 C   0  0  0  0  0  0  0  0  0  0  0  0
   -2.8730   -1.5816    0.0000 C   0  0  0  0  0  0  0  0  0  0  0  0
   -4.3602   -1.7774    0.0000 C   0  0  0  0  0  0  0  0  0  0  0  0
   -5.6907   -2.4700    0.0000 O   0  0  0  0  0  0  0  0  0  0  0  0
   -4.4256   -3.2760    0.0000 C   0  0  0  0  0  0  0  0  0  0  0  0
   -2.9611   -3.6006    0.0000 O   0  0  0  0  0  0  0  0  0  0  0  0
   -1.9598    0.0000    0.0000 C   0  0  0  0  0  0  0  0  0  0  0  0
   -3.1499    0.9131    0.0000 C   0  0  0  0  0  0  0  0  0  0  0  0
   -1.3858    1.3858    0.0000 C   0  0  0  0  0  0  0  0  0  0  0  0
    0.0000    1.9598    0.0000 C   0  0  0  0  0  0  0  0  0  0  0  0
    1.3858    1.3858    0.0000 C   0  0  0  0  0  0  0  0  0  0  0  0
    2.8730    1.5816    0.0000 N   0  0  0  0  0  0  0  0  0  0  0  0
    4.1441   -3.3135    0.0000 H   0  0  0  0  0  0  0  0  0  0  0  0
    2.2176   -2.7054    0.0000 H   0  0  0  0  0  0  0  0  0  0  0  0
    5.1097   -1.7249    0.0000 H   0  0  0  0  0  0  0  0  0  0  0  0
    4.0707    0.7834    0.0000 H   0  0  0  0  0  0  0  0  0  0  0  0
    7.1115   -0.6782    0.0000 H   0  0  0  0  0  0  0  0  0  0  0  0
    4.9273    2.6352    0.0000 H   0  0  0  0  0  0  0  0  0  0  0  0
    8.0771    0.9103    0.0000 H   0  0  0  0  0  0  0  0  0  0  0  0
    6.9291    3.6819    0.0000 H   0  0  0  0  0  0  0  0  0  0  0  0
    9.4630    1.4843    0.0000 H   0  0  0  0  0  0  0  0  0  0  0  0
    8.3149    4.2559    0.0000 H   0  0  0  0  0  0  0  0  0  0  0  0
   10.8488    2.0583    0.0000 H   0  0  0  0  0  0  0  0  0  0  0  0
    9.7007    4.8300    0.0000 H   0  0  0  0  0  0  0  0  0  0  0  0
   11.6606    4.0182    0.0000 H   0  0  0  0  0  0  0  0  0  0  0  0
    3.0741    0.4844    0.0000 H   0  0  0  0  0  0  0  0  0  0  0  0
    1.7964   -2.0691    0.0000 H   0  0  0  0  0  0  0  0  0  0  0  0
   -0.0000   -3.4598    0.0000 H   0  0  0  0  0  0  0  0  0  0  0  0
   -1.5816   -2.8730    0.0000 H   0  0  0  0  0  0  0  0  0  0  0  0
   -3.2486   -0.1294    0.0000 H   0  0  0  0  0  0  0  0  0  0  0  0
   -2.3232   -2.9772    0.0000 H   0  0  0  0  0  0  0  0  0  0  0  0
   -4.9822   -0.4125    0.0000 H   0  0  0  0  0  0  0  0  0  0  0  0
   -4.9996   -4.6618    0.0000 H   0  0  0  0  0  0  0  0  0  0  0  0
   -2.5101   -5.0312    0.0000 H   0  0  0  0  0  0  0  0  0  0  0  0
   -3.3981   -0.4259    0.0000 H   0  0  0  0  0  0  0  0  0  0  0  0
   -4.2013   -0.1567    0.0000 H   0  0  0  0  0  0  0  0  0  0  0  0
   -2.3886    2.2056    0.0000 H   0  0  0  0  0  0  0  0  0  0  0  0
   -4.3399    1.8263    0.0000 H   0  0  0  0  0  0  0  0  0  0  0  0
   -2.7040    2.1017    0.0000 H   0  0  0  0  0  0  0  0  0  0  0  0
   -1.7614    2.8380    0.0000 H   0  0  0  0  0  0  0  0  0  0  0  0
   -0.7613    3.2523    0.0000 H   0  0  0  0  0  0  0  0  0  0  0  0
    0.7613    3.2523    0.0000 H   0  0  0  0  0  0  0  0  0  0  0  0
    1.7614    2.8380    0.0000 H   0  0  0  0  0  0  0  0  0  0  0  0
    3.4470    2.9674    0.0000 H   0  0  0  0  0  0  0  0  0  0  0  0
    3.7861    0.3916    0.0000 H   0  0  0  0  0  0  0  0  0  0  0  0
  1  2  2  0
  2  3  1  0
  3  4  1  0
  4  5  2  3
  5  6  1  0
  6  7  1  0
  7  8  1  0
  2  9  1  0
  9 10  1  0
 10 11  2  0
 11 12  1  0
 12 13  1  0
 13 14  1  0
 14 15  1  0
 15 16  1  0
 16 17  1  0
 12 18  1  0
 18 19  1  0
 18 20  1  0
 20 21  1  0
 21 22  1  0
 22 23  1  0
 22  9  1  0
 16 14  1  0
  1 24  1  0
  1 25  1  0
  3 26  1  0
  3 27  1  0
  4 28  1  0
  5 29  1  0
  6 30  1  0
  6 31  1  0
  7 32  1  0
  7 33  1  0
  8 34  1  0
  8 35  1  0
  8 36  1  0
  9 37  1  6
 10 38  1  0
 11 39  1  0
 12 40  1  1
 13 41  1  0
 13 42  1  0
 14 43  1  6
 16 44  1  1
 17 45  1  0
 18 46  1  6
 19 47  1  0
 19 48  1  0
 19 49  1  0
 20 50  1  0
 20 51  1  0
 21 52  1  0
 21 53  1  0
 22 54  1  1
 23 55  1  0
 23 56  1  0
M  END
$$$$
