
     RDKit          2D

100105  0  0  0  0  0  0  0  0999 V2000
   -2.5587   12.1713    0.0000 C   0  0  0  0  0  0  0  0  0  0  0  0
   -3.3087   10.8723    0.0000 C   0  0  0  0  0  0  0  0  0  0  0  0
   -4.0587    9.5733    0.0000 C   0  0  0  0  0  0  0  0  0  0  0  0
   -4.8087    8.2742    0.0000 C   0  0  0  0  0  0  0  0  0  0  0  0
   -5.5587    6.9752    0.0000 C   0  0  0  0  0  0  0  0  0  0  0  0
   -4.2597    6.2252    0.0000 C   0  0  0  0  0  0  0  0  0  0  0  0
   -4.7727    4.8156    0.0000 C   0  0  0  0  0  0  0  0  0  0  0  0
   -4.7727    3.3156    0.0000 C   0  0  0  0  0  0  0  0  0  0  0  0
   -6.2727    3.3156    0.0000 C   0  0  0  0  0  0  0  0  0  0  0  0
   -6.2727    1.8156    0.0000 C   0  0  0  0  0  0  0  0  0  0  0  0
   -6.2727    0.3156    0.0000 N   0  0  0  0  0  0  0  0  0  0  0  0
   -7.5718   -0.4344    0.0000 C   0  0  0  0  0  0  0  0  0  0  0  0
   -4.7727    1.8156    0.0000 C   0  0  0  0  0  0  0  0  0  0  0  0
   -3.2727    1.8156    0.0000 C   0  0  0  0  0  0  0  0  0  0  0  0
   -3.2955    5.0761    0.0000 C   0  0  0  0  0  0  0  0  0  0  0  0
   -1.8183    5.3366    0.0000 C   0  0  0  0  0  0  0  0  0  0  0  0
   -2.3313    3.9271    0.0000 C   0  0  0  0  0  0  0  0  0  0  0  0
   -1.0323    3.1771    0.0000 C   0  0  0  0  0  0  0  0  0  0  0  0
    0.3943    2.7135    0.0000 C   0  0  0  0  0  0  0  0  0  0  0  0
    0.3943    1.2135    0.0000 C   0  0  0  0  0  0  0  0  0  0  0  0
    1.2760    0.0000    0.0000 C   0  0  0  0  0  0  0  0  0  0  0  0
    0.3943   -1.2135    0.0000 C   0  0  0  0  0  0  0  0  0  0  0  0
    1.6933   -1.9635    0.0000 C   0  0  0  0  0  0  0  0  0  0  0  0
    2.9924   -2.7135    0.0000 C   0  0  0  0  0  0  0  0  0  0  0  0
    2.2424   -4.0126    0.0000 O   0  0  0  0  0  0  0  0  0  0  0  0
    4.2914   -3.4635    0.0000 C   0  0  0  0  0  0  0  0  0  0  0  0
    5.0414   -2.1645    0.0000 F   0  0  0  0  0  0  0  0  0  0  0  0
    5.5905   -4.2135    0.0000 C   0  0  0  0  0  0  0  0  0  0  0  0
    6.8895   -4.9635    0.0000 O   0  0  0  0  0  0  0  0  0  0  0  0
   -0.2158   -2.5838    0.0000 C   0  0  0  0  0  0  0  0  0  0  0  0
   -0.8259   -3.9542    0.0000 C   0  0  0  0  0  0  0  0  0  0  0  0
   -1.5861   -1.9737    0.0000 F   0  0  0  0  0  0  0  0  0  0  0  0
   -1.0323   -0.7500    0.0000 O   0  0  0  0  0  0  0  0  0  0  0  0
   -1.0323    0.7500    0.0000 C   0  0  0  0  0  0  0  0  0  0  0  0
   -1.9140    1.9635    0.0000 C   0  0  0  0  0  0  0  0  0  0  0  0
   -6.8578    7.7252    0.0000 C   0  0  0  0  0  0  0  0  0  0  0  0
   -7.6078    6.4261    0.0000 C   0  0  0  0  0  0  0  0  0  0  0  0
   -8.9068    7.1761    0.0000 S   0  0  0  0  0  0  0  0  0  0  0  0
   -8.3578    5.1271    0.0000 C   0  0  0  0  0  0  0  0  0  0  0  0
   -9.1078    3.8281    0.0000 C   0  0  0  0  0  0  0  0  0  0  0  0
   -9.8578    2.5290    0.0000 I   0  0  0  0  0  0  0  0  0  0  0  0
   -6.1078    9.0242    0.0000 N   0  0  0  0  0  0  0  0  0  0  0  0
   -6.4960   10.4731    0.0000 C   0  0  0  0  0  0  0  0  0  0  0  0
   -1.8087   13.4704    0.0000 H   0  0  0  0  0  0  0  0  0  0  0  0
   -1.2597   11.4213    0.0000 H   0  0  0  0  0  0  0  0  0  0  0  0
   -3.8578   12.9213    0.0000 H   0  0  0  0  0  0  0  0  0  0  0  0
   -4.5067   11.7751    0.0000 H   0  0  0  0  0  0  0  0  0  0  0  0
   -2.0097   10.1223    0.0000 H   0  0  0  0  0  0  0  0  0  0  0  0
   -2.7597    8.8233    0.0000 H   0  0  0  0  0  0  0  0  0  0  0  0
   -5.2567   10.4760    0.0000 H   0  0  0  0  0  0  0  0  0  0  0  0
   -3.8021    7.8470    0.0000 H   0  0  0  0  0  0  0  0  0  0  0  0
   -6.3712    5.8970    0.0000 H   0  0  0  0  0  0  0  0  0  0  0  0
   -3.4599    6.9709    0.0000 H   0  0  0  0  0  0  0  0  0  0  0  0
   -5.5688    4.8573    0.0000 H   0  0  0  0  0  0  0  0  0  0  0  0
   -3.2727    3.3156    0.0000 H   0  0  0  0  0  0  0  0  0  0  0  0
   -7.7615    3.1328    0.0000 H   0  0  0  0  0  0  0  0  0  0  0  0
   -6.2727    4.2014    0.0000 H   0  0  0  0  0  0  0  0  0  0  0  0
   -7.7727    1.8156    0.0000 H   0  0  0  0  0  0  0  0  0  0  0  0
   -5.0748   -0.5871    0.0000 H   0  0  0  0  0  0  0  0  0  0  0  0
   -8.8708   -1.1844    0.0000 H   0  0  0  0  0  0  0  0  0  0  0  0
   -6.8218   -1.7334    0.0000 H   0  0  0  0  0  0  0  0  0  0  0  0
   -8.3218    0.8647    0.0000 H   0  0  0  0  0  0  0  0  0  0  0  0
   -4.5899    0.3268    0.0000 H   0  0  0  0  0  0  0  0  0  0  0  0
   -1.8173    1.4527    0.0000 H   0  0  0  0  0  0  0  0  0  0  0  0
   -3.8104    0.4153    0.0000 H   0  0  0  0  0  0  0  0  0  0  0  0
   -3.4556    0.3268    0.0000 H   0  0  0  0  0  0  0  0  0  0  0  0
   -1.8183    6.8366    0.0000 H   0  0  0  0  0  0  0  0  0  0  0  0
   -0.3203    5.2581    0.0000 H   0  0  0  0  0  0  0  0  0  0  0  0
   -3.2955    2.7780    0.0000 H   0  0  0  0  0  0  0  0  0  0  0  0
   -0.2597    4.4628    0.0000 H   0  0  0  0  0  0  0  0  0  0  0  0
    0.7062    4.1807    0.0000 H   0  0  0  0  0  0  0  0  0  0  0  0
    1.8941    2.7397    0.0000 H   0  0  0  0  0  0  0  0  0  0  0  0
    1.8209    1.6771    0.0000 H   0  0  0  0  0  0  0  0  0  0  0  0
    2.5047    0.8603    0.0000 H   0  0  0  0  0  0  0  0  0  0  0  0
    2.5047   -0.8603    0.0000 H   0  0  0  0  0  0  0  0  0  0  0  0
    1.1073   -3.3443    0.0000 H   0  0  0  0  0  0  0  0  0  0  0  0
    2.5961   -0.7656    0.0000 H   0  0  0  0  0  0  0  0  0  0  0  0
    3.7424   -1.4145    0.0000 H   0  0  0  0  0  0  0  0  0  0  0  0
    2.8284   -5.3933    0.0000 H   0  0  0  0  0  0  0  0  0  0  0  0
    3.7054   -4.8443    0.0000 H   0  0  0  0  0  0  0  0  0  0  0  0
    4.8405   -5.5126    0.0000 H   0  0  0  0  0  0  0  0  0  0  0  0
    6.3405   -2.9145    0.0000 H   0  0  0  0  0  0  0  0  0  0  0  0
    8.1885   -4.2135    0.0000 H   0  0  0  0  0  0  0  0  0  0  0  0
    1.0699   -3.3564    0.0000 H   0  0  0  0  0  0  0  0  0  0  0  0
   -1.4360   -5.3245    0.0000 H   0  0  0  0  0  0  0  0  0  0  0  0
   -2.1962   -3.3441    0.0000 H   0  0  0  0  0  0  0  0  0  0  0  0
    0.5444   -4.5643    0.0000 H   0  0  0  0  0  0  0  0  0  0  0  0
   -2.1979   -0.1941    0.0000 H   0  0  0  0  0  0  0  0  0  0  0  0
   -2.8980    0.8314    0.0000 H   0  0  0  0  0  0  0  0  0  0  0  0
   -3.0287    2.9672    0.0000 H   0  0  0  0  0  0  0  0  0  0  0  0
   -8.1568    8.4752    0.0000 H   0  0  0  0  0  0  0  0  0  0  0  0
   -6.4098    5.5234    0.0000 H   0  0  0  0  0  0  0  0  0  0  0  0
  -10.2876    6.5901    0.0000 H   0  0  0  0  0  0  0  0  0  0  0  0
   -9.7385    5.7132    0.0000 H   0  0  0  0  0  0  0  0  0  0  0  0
   -6.9770    4.5410    0.0000 H   0  0  0  0  0  0  0  0  0  0  0  0
  -10.4068    4.5781    0.0000 H   0  0  0  0  0  0  0  0  0  0  0  0
   -7.9098    2.9253    0.0000 H   0  0  0  0  0  0  0  0  0  0  0  0
   -6.8842   11.9220    0.0000 H   0  0  0  0  0  0  0  0  0  0  0  0
   -5.1841   11.2004    0.0000 H   0  0  0  0  0  0  0  0  0  0  0  0
   -7.9449   10.0849    0.0000 H   0  0  0  0  0  0  0  0  0  0  0  0
  1  2  1  0
  2  3  1  0
  3  4  1  0
  4  5  1  0
  5  6  1  0
  6  7  1  0
  7  8  1  0
  8  9  1  0
  9 10  1  0
 10 11  1  0
 11 12  1  0
 10 13  1  0
 13 14  1  0
  7 15  1  0
 15 16  1  0
 16 17  1  0
 17 18  1  0
 18 19  1  0
 19 20  1  0
 20 21  1  0
 21 22  1  0
 22 23  1  0
 23 24  1  0
 24 25  1  0
 24 26  1  0
 26 27  1  0
 26 28  1  0
 28 29  1  0
 22 30  1  0
 30 31  1  0
 30 32  1  0
 22 33  1  0
 33 34  1  0
 34 35  1  0
  5 36  1  0
 36 37  1  0
 37 38  1  0
 37 39  1  0
 39 40  1  0
 40 41  1  0
 36 42  1  0
 42 43  1  0
 42  4  1  0
 15  6  1  0
 35 18  1  0
 13  8  1  0
 17 15  1  0
 34 20  1  0
  1 44  1  0
  1 45  1  0
  1 46  1  0
  2 47  1  0
  2 48  1  0
  3 49  1  0
  3 50  1  0
  4 51  1  0
  5 52  1  0
  6 53  1  0
  7 54  1  0
  8 55  1  0
  9 56  1  0
  9 57  1  0
 10 58  1  0
 11 59  1  0
 12 60  1  0
 12 61  1  0
 12 62  1  0
 13 63  1  0
 14 64  1  0
 14 65  1  0
 14 66  1  0
 16 67  1  0
 16 68  1  0
 17 69  1  0
 18 70  1  0
 19 71  1  0
 19 72  1  0
 20 73  1  0
 21 74  1  0
 21 75  1  0
 23 76  1  0
 23 77  1  0
 24 78  1  0
 25 79  1  0
 26 80  1  0
 28 81  1  0
 28 82  1  0
 29 83  1  0
 30 84  1  0
 31 85  1  0
 31 86  1  0
 31 87  1  0
 34 88  1  0
 35 89  1  0
 35 90  1  0
 36 91  1  0
 37 92  1  0
 38 93  1  0
 39 94  1  0
 39 95  1  0
 40 96  1  0
 40 97  1  0
 43 98  1  0
 43 99  1  0
 43100  1  0
M  END
$$$$
