
     RDKit          3D

 28 33  0  0  0  0  0  0  0  0999 V2000
   23.7364  -23.4201  -12.2489 C   0  0  0  0  0  0  0  0  0  0  0  0
   25.1040  -24.0500  -11.8060 C   0  0  0  0  0  0  0  0  0  0  0  0
   23.7056  -22.2117  -13.1916 C   0  0  0  0  0  0  0  0  0  0  0  0
   22.2757  -21.6218  -13.2797 C   0  0  0  0  0  0  0  0  0  0  0  0
   23.5684  -23.6453  -13.7833 C   0  0  0  0  0  0  0  0  0  0  0  0
   21.7777  -21.0188  -12.0029 C   0  0  0  0  0  0  0  0  0  0  0  0
   20.2591  -21.3514  -11.8268 C   0  0  0  0  0  0  0  0  0  0  0  0
   22.1700  -20.2297  -13.0889 O   0  0  0  0  0  0  0  0  0  0  0  0
   19.1337  -20.7964  -12.7968 C   0  0  0  0  0  0  0  0  0  0  0  0
   24.2258  -22.5058  -14.5687 C   0  0  0  0  0  0  0  0  0  0  0  0
   17.9114  -20.3216  -11.8726 C   0  0  0  0  0  0  0  0  0  0  0  0
   17.5832  -22.2413  -14.5950 C   0  0  0  0  0  0  0  0  0  0  0  0
   16.4514  -20.4683  -12.2911 C   0  0  0  0  0  0  0  0  0  0  0  0
   18.9682  -21.7460  -14.0665 C   0  0  0  0  0  0  0  0  0  0  0  0
   17.1201  -21.4932  -11.3541 C   0  0  0  0  0  0  0  0  0  0  0  0
   17.4285  -20.5787  -16.7611 C   0  0  0  0  0  0  0  0  0  0  0  0
   25.0925  -24.5127  -10.3158 C   0  0  0  0  0  0  0  0  0  0  0  0
   15.3631  -20.8947  -15.1945 C   0  0  0  0  0  0  0  0  0  0  0  0
   14.2989  -20.6716  -17.3604 O   0  0  0  0  0  0  0  0  0  0  0  0
   18.1644  -19.3175  -16.2700 C   0  0  0  0  0  0  0  0  0  0  0  0
   13.9236  -22.7071  -16.2383 N   0  0  0  0  0  0  0  0  0  0  0  0
   14.1513  -21.2687  -16.0775 C   0  0  0  0  0  0  0  0  0  0  0  0
   13.1685  -20.8195  -18.0213 O   0  0  0  0  0  0  0  0  0  0  0  0
   16.7198  -21.4737  -15.7179 C   0  0  0  0  0  0  0  0  0  0  0  0
   25.9025  -23.2967  -10.7304 C   0  0  0  0  0  0  0  0  0  0  0  0
   27.4251  -23.4685  -10.9616 C   0  0  0  0  0  0  0  0  0  0  0  0
   24.8351  -25.4830  -11.4554 C   0  0  0  0  0  0  0  0  0  0  0  0
   17.3031  -18.0952  -16.0530 C   0  0  0  0  0  0  0  0  0  0  0  0
  2  1  1  0
  3  1  1  0
  4  3  1  0
  5  1  1  0
  5  3  1  0
  6  4  1  0
  7  6  1  0
  8  4  1  0
  8  6  1  0
  9  7  1  0
 10  3  1  0
 10  5  1  0
 11  9  1  0
 13 11  1  0
 14  9  1  0
 14 12  1  0
 15 11  1  0
 15 13  1  0
 17  2  1  0
 20 16  1  0
 22 18  1  0
 22 19  1  0
 22 21  1  0
 23 19  1  0
 24 12  1  0
 24 16  1  0
 24 18  1  0
 25  2  1  0
 25 17  1  0
 26 25  1  0
 27  2  1  0
 27 17  1  0
 28 20  1  0
M  END
$$$$
