
     RDKit          2D

 17 19  0  0  0  0  0  0  0  0999 V2000
    2.2894   -1.2610    0.0000 C   0  0  0  0  0  0  0  0  0  0  0  0
    2.4201   -2.7552    0.0000 O   0  0  0  0  0  0  0  0  0  0  0  0
    1.0607   -2.1213    0.0000 C   0  0  0  0  0  0  0  0  0  0  0  0
   -0.0000   -1.0607    0.0000 C   0  0  0  0  0  0  0  0  0  0  0  0
    1.0607    0.0000    0.0000 Mg  0  0  0  0  0  2  0  0  0  0  0  0
    0.0000    1.0607    0.0000 S   0  0  0  0  0  0  0  0  0  0  0  0
   -1.0607    0.0000    0.0000 C   0  0  0  0  0  0  0  0  0  0  0  0
   -2.3597   -0.7500    0.0000 C   0  0  0  0  0  0  0  0  0  0  0  0
   -2.3597    0.7500    0.0000 C   0  0  0  0  0  0  0  0  0  0  0  0
    3.7383   -0.8727    0.0000 H   0  0  0  0  0  0  0  0  0  0  0  0
    2.0033    0.2115    0.0000 H   0  0  0  0  0  0  0  0  0  0  0  0
    0.2003   -3.3500    0.0000 H   0  0  0  0  0  0  0  0  0  0  0  0
   -0.9235   -2.2427    0.0000 H   0  0  0  0  0  0  0  0  0  0  0  0
   -2.0223   -2.2116    0.0000 H   0  0  0  0  0  0  0  0  0  0  0  0
   -3.8369   -1.0105    0.0000 H   0  0  0  0  0  0  0  0  0  0  0  0
   -3.8369    1.0105    0.0000 H   0  0  0  0  0  0  0  0  0  0  0  0
   -1.8467    2.1595    0.0000 H   0  0  0  0  0  0  0  0  0  0  0  0
  1  2  1  0
  2  3  1  0
  3  4  1  0
  4  5  1  0
  5  6  1  0
  6  7  1  0
  7  8  1  0
  8  9  1  0
  3  1  1  0
  7  4  1  0
  9  7  1  0
  1 10  1  0
  1 11  1  0
  3 12  1  0
  4 13  1  0
  8 14  1  0
  8 15  1  0
  9 16  1  0
  9 17  1  0
M  END
$$$$
