
     RDKit          2D

 61 63  0  0  0  0  0  0  0  0999 V2000
    3.8173    0.5402    0.0000 C   0  0  0  0  0  0  0  0  0  0  0  0
    2.3907    1.0037    0.0000 C   0  0  0  0  0  0  0  0  0  0  0  0
    1.2760    0.0000    0.0000 Si  0  0  0  0  0  4  0  0  0  0  0  0
    0.3943    1.2135    0.0000 N   0  0  0  0  0  0  0  0  0  0  0  0
   -1.0323    0.7500    0.0000 C   0  0  0  0  0  0  0  0  0  0  0  0
   -2.5241    0.5932    0.0000 C   0  0  0  0  0  0  0  0  0  0  0  0
   -4.0159    0.4364    0.0000 C   0  0  0  0  0  0  0  0  0  0  0  0
   -5.5076    0.2796    0.0000 C   0  0  0  0  0  0  0  0  0  0  0  0
   -6.9994    0.1228    0.0000 C   0  0  0  0  0  0  0  0  0  0  0  0
   -2.6809    2.0850    0.0000 C   0  0  0  0  0  0  0  0  0  0  0  0
   -2.8377    3.5768    0.0000 C   0  0  0  0  0  0  0  0  0  0  0  0
   -1.4373    4.1143    0.0000 C   0  0  0  0  0  0  0  0  0  0  0  0
   -1.9748    5.5147    0.0000 C   0  0  0  0  0  0  0  0  0  0  0  0
   -3.3752    4.9771    0.0000 C   0  0  0  0  0  0  0  0  0  0  0  0
   -4.3192    3.8114    0.0000 N   0  0  0  0  0  0  0  0  0  0  0  0
   -1.0323   -0.7500    0.0000 C   0  0  0  0  0  0  0  0  0  0  0  0
   -1.3442   -2.2172    0.0000 C   0  0  0  0  0  0  0  0  0  0  0  0
   -1.6560   -3.6844    0.0000 C   0  0  0  0  0  0  0  0  0  0  0  0
   -1.9679   -5.1517    0.0000 C   0  0  0  0  0  0  0  0  0  0  0  0
   -2.2798   -6.6189    0.0000 C   0  0  0  0  0  0  0  0  0  0  0  0
   -2.5916   -8.0861    0.0000 C   0  0  0  0  0  0  0  0  0  0  0  0
    0.3943   -1.2135    0.0000 C   0  0  0  0  0  0  0  0  0  0  0  0
    1.6933   -1.9635    0.0000 C   0  0  0  0  0  0  0  0  0  0  0  0
    4.9320    1.5439    0.0000 H   0  0  0  0  0  0  0  0  0  0  0  0
    4.1291   -0.9271    0.0000 H   0  0  0  0  0  0  0  0  0  0  0  0
    2.0788    2.4709    0.0000 H   0  0  0  0  0  0  0  0  0  0  0  0
    2.5047   -0.8603    0.0000 H   0  0  0  0  0  0  0  0  0  0  0  0
    0.8578    2.6401    0.0000 H   0  0  0  0  0  0  0  0  0  0  0  0
   -1.0013    1.6352    0.0000 H   0  0  0  0  0  0  0  0  0  0  0  0
   -2.5396   -0.2924    0.0000 H   0  0  0  0  0  0  0  0  0  0  0  0
   -4.2151    1.2994    0.0000 H   0  0  0  0  0  0  0  0  0  0  0  0
   -3.8591   -1.0554    0.0000 H   0  0  0  0  0  0  0  0  0  0  0  0
   -5.3508   -1.2122    0.0000 H   0  0  0  0  0  0  0  0  0  0  0  0
   -5.6644    1.7714    0.0000 H   0  0  0  0  0  0  0  0  0  0  0  0
   -8.4912   -0.0340    0.0000 H   0  0  0  0  0  0  0  0  0  0  0  0
   -7.1562    1.6146    0.0000 H   0  0  0  0  0  0  0  0  0  0  0  0
   -6.8426   -1.3690    0.0000 H   0  0  0  0  0  0  0  0  0  0  0  0
   -1.8000    2.1776    0.0000 H   0  0  0  0  0  0  0  0  0  0  0  0
   -3.5665    2.1005    0.0000 H   0  0  0  0  0  0  0  0  0  0  0  0
   -0.0369    4.6519    0.0000 H   0  0  0  0  0  0  0  0  0  0  0  0
   -0.5769    2.8856    0.0000 H   0  0  0  0  0  0  0  0  0  0  0  0
   -2.5124    6.9151    0.0000 H   0  0  0  0  0  0  0  0  0  0  0  0
   -0.5745    6.0522    0.0000 H   0  0  0  0  0  0  0  0  0  0  0  0
   -4.2569    6.1907    0.0000 H   0  0  0  0  0  0  0  0  0  0  0  0
   -5.7196    3.2739    0.0000 H   0  0  0  0  0  0  0  0  0  0  0  0
   -1.9179   -0.7655    0.0000 H   0  0  0  0  0  0  0  0  0  0  0  0
   -2.8114   -1.9054    0.0000 H   0  0  0  0  0  0  0  0  0  0  0  0
    0.0741   -2.7056    0.0000 H   0  0  0  0  0  0  0  0  0  0  0  0
   -3.1232   -3.3726    0.0000 H   0  0  0  0  0  0  0  0  0  0  0  0
   -0.1888   -3.9963    0.0000 H   0  0  0  0  0  0  0  0  0  0  0  0
   -0.5007   -5.4635    0.0000 H   0  0  0  0  0  0  0  0  0  0  0  0
   -3.4351   -4.8398    0.0000 H   0  0  0  0  0  0  0  0  0  0  0  0
   -3.7470   -6.3070    0.0000 H   0  0  0  0  0  0  0  0  0  0  0  0
   -0.8125   -6.9308    0.0000 H   0  0  0  0  0  0  0  0  0  0  0  0
   -2.9035   -9.5533    0.0000 H   0  0  0  0  0  0  0  0  0  0  0  0
   -1.1244   -8.3980    0.0000 H   0  0  0  0  0  0  0  0  0  0  0  0
   -4.0588   -7.7742    0.0000 H   0  0  0  0  0  0  0  0  0  0  0  0
   -0.0442   -2.6480    0.0000 H   0  0  0  0  0  0  0  0  0  0  0  0
    2.9924   -2.7135    0.0000 H   0  0  0  0  0  0  0  0  0  0  0  0
    0.9433   -3.2626    0.0000 H   0  0  0  0  0  0  0  0  0  0  0  0
    2.5961   -0.7656    0.0000 H   0  0  0  0  0  0  0  0  0  0  0  0
  1  2  2  3
  2  3  1  0
  3  4  1  0
  4  5  1  0
  5  6  1  0
  6  7  1  0
  7  8  1  0
  8  9  1  0
  6 10  1  0
 10 11  1  0
 11 12  1  0
 12 13  1  0
 13 14  1  0
 14 15  1  0
  5 16  1  0
 16 17  1  0
 17 18  1  0
 18 19  1  0
 19 20  1  0
 20 21  1  0
 16 22  1  0
 22 23  1  0
 22  3  1  0
 14 11  1  0
 15 11  1  0
  1 24  1  0
  1 25  1  0
  2 26  1  0
  3 27  1  0
  4 28  1  0
  5 29  1  0
  6 30  1  0
  7 31  1  0
  7 32  1  0
  8 33  1  0
  8 34  1  0
  9 35  1  0
  9 36  1  0
  9 37  1  0
 10 38  1  0
 10 39  1  0
 12 40  1  0
 12 41  1  0
 13 42  1  0
 13 43  1  0
 14 44  1  0
 15 45  1  0
 16 46  1  0
 17 47  1  0
 17 48  1  0
 18 49  1  0
 18 50  1  0
 19 51  1  0
 19 52  1  0
 20 53  1  0
 20 54  1  0
 21 55  1  0
 21 56  1  0
 21 57  1  0
 22 58  1  0
 23 59  1  0
 23 60  1  0
 23 61  1  0
M  END
$$$$
