
     RDKit          2D

 68 72  0  0  0  0  0  0  0  0999 V2000
   -5.6662    4.3515    0.0000 C   0  0  0  0  0  0  0  0  0  0  0  0
   -4.3672    3.6015    0.0000 C   0  0  0  0  0  0  0  0  0  0  0  0
   -3.0682    2.8515    0.0000 N   0  0  0  0  0  0  0  0  0  0  0  0
   -3.0682    1.3515    0.0000 C   0  0  0  0  0  0  0  0  0  0  0  0
   -1.6058    1.6852    0.0000 C   0  0  0  0  0  0  0  0  0  0  0  0
   -0.4330    0.7500    0.0000 C   0  0  0  0  0  0  0  0  0  0  0  0
    0.4120    1.9894    0.0000 O   0  0  0  0  0  0  0  0  0  0  0  0
    1.9078    1.8773    0.0000 F   0  0  0  0  0  0  0  0  0  0  0  0
    0.8660    0.0000    0.0000 O   0  0  0  0  0  0  0  0  0  0  0  0
   -0.4330   -0.7500    0.0000 C   0  0  0  0  0  0  0  0  0  0  0  0
    0.4120   -1.9894    0.0000 N   0  0  0  0  0  0  0  0  0  0  0  0
    0.5241   -3.4852    0.0000 C   0  0  0  0  0  0  0  0  0  0  0  0
    1.3690   -4.7245    0.0000 C   0  0  0  0  0  0  0  0  0  0  0  0
    2.6084   -3.8795    0.0000 C   0  0  0  0  0  0  0  0  0  0  0  0
    3.8478   -3.0346    0.0000 C   0  0  0  0  0  0  0  0  0  0  0  0
    5.0871   -2.1896    0.0000 C   0  0  0  0  0  0  0  0  0  0  0  0
    1.7634   -2.6402    0.0000 C   0  0  0  0  0  0  0  0  0  0  0  0
   -1.6058   -1.6852    0.0000 C   0  0  0  0  0  0  0  0  0  0  0  0
   -3.0682   -1.3515    0.0000 C   0  0  0  0  0  0  0  0  0  0  0  0
   -4.5305   -1.6852    0.0000 C   0  0  0  0  0  0  0  0  0  0  0  0
   -5.9929   -2.0190    0.0000 C   0  0  0  0  0  0  0  0  0  0  0  0
   -7.4553   -2.3528    0.0000 C   0  0  0  0  0  0  0  0  0  0  0  0
   -8.9177   -2.6866    0.0000 O   0  0  0  0  0  0  0  0  0  0  0  0
   -3.0682   -2.8515    0.0000 C   0  0  0  0  0  0  0  0  0  0  0  0
   -4.5682   -2.8515    0.0000 C   0  0  0  0  0  0  0  0  0  0  0  0
   -4.5682   -4.3515    0.0000 C   0  0  0  0  0  0  0  0  0  0  0  0
   -3.0682   -4.3515    0.0000 C   0  0  0  0  0  0  0  0  0  0  0  0
   -1.5682   -4.3515    0.0000 C   0  0  0  0  0  0  0  0  0  0  0  0
   -0.0682   -4.3515    0.0000 N   0  0  0  0  0  0  0  0  0  0  0  0
   -3.7190    0.0000    0.0000 O   0  0  0  0  0  0  0  0  0  0  0  0
   -6.9653    5.1015    0.0000 H   0  0  0  0  0  0  0  0  0  0  0  0
   -4.9162    5.6505    0.0000 H   0  0  0  0  0  0  0  0  0  0  0  0
   -6.4162    3.0524    0.0000 H   0  0  0  0  0  0  0  0  0  0  0  0
   -5.2699    2.4035    0.0000 H   0  0  0  0  0  0  0  0  0  0  0  0
   -3.6172    4.9005    0.0000 H   0  0  0  0  0  0  0  0  0  0  0  0
   -2.2822    3.4438    0.0000 H   0  0  0  0  0  0  0  0  0  0  0  0
   -4.5603    1.5045    0.0000 H   0  0  0  0  0  0  0  0  0  0  0  0
   -0.4330    2.6205    0.0000 H   0  0  0  0  0  0  0  0  0  0  0  0
   -1.6866    2.6661    0.0000 H   0  0  0  0  0  0  0  0  0  0  0  0
   -0.0166   -4.0709    0.0000 H   0  0  0  0  0  0  0  0  0  0  0  0
    2.2140   -5.9639    0.0000 H   0  0  0  0  0  0  0  0  0  0  0  0
    0.2419   -5.7143    0.0000 H   0  0  0  0  0  0  0  0  0  0  0  0
    3.4534   -5.1189    0.0000 H   0  0  0  0  0  0  0  0  0  0  0  0
    4.6927   -4.2739    0.0000 H   0  0  0  0  0  0  0  0  0  0  0  0
    3.1602   -1.7014    0.0000 H   0  0  0  0  0  0  0  0  0  0  0  0
    6.3265   -1.3446    0.0000 H   0  0  0  0  0  0  0  0  0  0  0  0
    5.9321   -3.4289    0.0000 H   0  0  0  0  0  0  0  0  0  0  0  0
    4.2421   -0.9502    0.0000 H   0  0  0  0  0  0  0  0  0  0  0  0
    2.5960   -1.3924    0.0000 H   0  0  0  0  0  0  0  0  0  0  0  0
   -1.9102   -3.1540    0.0000 H   0  0  0  0  0  0  0  0  0  0  0  0
   -0.4330   -2.6205    0.0000 H   0  0  0  0  0  0  0  0  0  0  0  0
   -4.5605   -3.1849    0.0000 H   0  0  0  0  0  0  0  0  0  0  0  0
   -4.8643   -0.2228    0.0000 H   0  0  0  0  0  0  0  0  0  0  0  0
   -6.3267   -0.5566    0.0000 H   0  0  0  0  0  0  0  0  0  0  0  0
   -5.8399   -3.5112    0.0000 H   0  0  0  0  0  0  0  0  0  0  0  0
   -7.7891   -0.8904    0.0000 H   0  0  0  0  0  0  0  0  0  0  0  0
   -7.1215   -3.8152    0.0000 H   0  0  0  0  0  0  0  0  0  0  0  0
   -9.3599   -4.1199    0.0000 H   0  0  0  0  0  0  0  0  0  0  0  0
   -1.5682   -2.8515    0.0000 H   0  0  0  0  0  0  0  0  0  0  0  0
   -6.0570   -3.0343    0.0000 H   0  0  0  0  0  0  0  0  0  0  0  0
   -4.9311   -1.3960    0.0000 H   0  0  0  0  0  0  0  0  0  0  0  0
   -4.5682   -5.8515    0.0000 H   0  0  0  0  0  0  0  0  0  0  0  0
   -6.0682   -4.3515    0.0000 H   0  0  0  0  0  0  0  0  0  0  0  0
   -3.0682   -5.8515    0.0000 H   0  0  0  0  0  0  0  0  0  0  0  0
   -1.5682   -5.8515    0.0000 H   0  0  0  0  0  0  0  0  0  0  0  0
   -1.2052   -2.8960    0.0000 H   0  0  0  0  0  0  0  0  0  0  0  0
    0.5179   -5.7322    0.0000 H   0  0  0  0  0  0  0  0  0  0  0  0
    0.9739   -3.2725    0.0000 H   0  0  0  0  0  0  0  0  0  0  0  0
  1  2  1  0
  2  3  1  0
  3  4  1  0
  4  5  1  0
  5  6  1  0
  6  7  1  0
  7  8  1  0
  6  9  1  0
  9 10  1  0
 10 11  1  0
 11 12  1  0
 12 13  1  0
 13 14  1  0
 14 15  1  0
 15 16  1  0
 14 17  1  0
 10 18  1  0
 18 19  1  0
 19 20  1  0
 20 21  1  0
 21 22  1  0
 22 23  1  0
 19 24  1  0
 24 25  1  0
 25 26  1  0
 26 27  1  0
 27 28  1  0
 28 29  1  0
 19 30  1  0
 30  4  1  0
 10  6  1  0
 17 11  1  0
 27 24  1  0
 17 12  1  0
  1 31  1  0
  1 32  1  0
  1 33  1  0
  2 34  1  0
  2 35  1  0
  3 36  1  0
  4 37  1  0
  5 38  1  0
  5 39  1  0
 12 40  1  0
 13 41  1  0
 13 42  1  0
 14 43  1  0
 15 44  1  0
 15 45  1  0
 16 46  1  0
 16 47  1  0
 16 48  1  0
 17 49  1  0
 18 50  1  0
 18 51  1  0
 20 52  1  0
 20 53  1  0
 21 54  1  0
 21 55  1  0
 22 56  1  0
 22 57  1  0
 23 58  1  0
 24 59  1  0
 25 60  1  0
 25 61  1  0
 26 62  1  0
 26 63  1  0
 27 64  1  0
 28 65  1  0
 28 66  1  0
 29 67  1  0
 29 68  1  0
M  END
$$$$
