
     RDKit          2D

 53 54  0  0  0  0  0  0  0  0999 V2000
    3.6019   -5.8358    0.0000 C   0  0  0  0  0  0  0  0  0  0  0  0
    2.6377   -4.6867    0.0000 C   0  0  0  0  0  0  0  0  0  0  0  0
    1.1605   -4.9472    0.0000 O   0  0  0  0  0  0  0  0  0  0  0  0
    0.1963   -3.7981    0.0000 C   0  0  0  0  0  0  0  0  0  0  0  0
   -0.7679   -2.6491    0.0000 C   0  0  0  0  0  0  0  0  0  0  0  0
   -1.9169   -3.6132    0.0000 F   0  0  0  0  0  0  0  0  0  0  0  0
   -1.7321   -1.5000    0.0000 C   0  0  0  0  0  0  0  0  0  0  0  0
   -3.0311   -0.7500    0.0000 C   0  0  0  0  0  0  0  0  0  0  0  0
   -3.0311    0.7500    0.0000 C   0  0  0  0  0  0  0  0  0  0  0  0
   -1.7321    1.5000    0.0000 C   0  0  0  0  0  0  0  0  0  0  0  0
   -2.6962    2.6491    0.0000 C   0  0  0  0  0  0  0  0  0  0  0  0
   -3.6604    3.7981    0.0000 O   0  0  0  0  0  0  0  0  0  0  0  0
   -0.4330    0.7500    0.0000 C   0  0  0  0  0  0  0  0  0  0  0  0
    0.8660    0.0000    0.0000 C   0  0  0  0  0  0  0  0  0  0  0  0
   -0.4330   -0.7500    0.0000 C   0  0  0  0  0  0  0  0  0  0  0  0
    0.3170   -2.0490    0.0000 C   0  0  0  0  0  0  0  0  0  0  0  0
    1.0670   -3.3481    0.0000 C   0  0  0  0  0  0  0  0  0  0  0  0
    1.8170   -4.6471    0.0000 C   0  0  0  0  0  0  0  0  0  0  0  0
    3.3170   -4.6471    0.0000 N   0  0  0  0  0  0  0  0  0  0  0  0
    1.0670   -5.9462    0.0000 C   0  0  0  0  0  0  0  0  0  0  0  0
    0.3170   -7.2452    0.0000 C   0  0  0  0  0  0  0  0  0  0  0  0
   -0.4330   -8.5442    0.0000 C   0  0  0  0  0  0  0  0  0  0  0  0
   -0.9821   -6.4952    0.0000 O   0  0  0  0  0  0  0  0  0  0  0  0
    5.0791   -5.5753    0.0000 H   0  0  0  0  0  0  0  0  0  0  0  0
    3.2645   -7.2974    0.0000 H   0  0  0  0  0  0  0  0  0  0  0  0
    3.1507   -3.2772    0.0000 H   0  0  0  0  0  0  0  0  0  0  0  0
    1.5445   -3.1406    0.0000 H   0  0  0  0  0  0  0  0  0  0  0  0
   -1.0617   -4.6151    0.0000 H   0  0  0  0  0  0  0  0  0  0  0  0
    0.5804   -1.9916    0.0000 H   0  0  0  0  0  0  0  0  0  0  0  0
   -2.6962   -2.6491    0.0000 H   0  0  0  0  0  0  0  0  0  0  0  0
   -3.5441   -2.1595    0.0000 H   0  0  0  0  0  0  0  0  0  0  0  0
   -4.5083   -0.4895    0.0000 H   0  0  0  0  0  0  0  0  0  0  0  0
   -4.5083    0.4895    0.0000 H   0  0  0  0  0  0  0  0  0  0  0  0
   -3.7121    2.0865    0.0000 H   0  0  0  0  0  0  0  0  0  0  0  0
   -0.7679    2.6491    0.0000 H   0  0  0  0  0  0  0  0  0  0  0  0
   -1.5472    3.6132    0.0000 H   0  0  0  0  0  0  0  0  0  0  0  0
   -3.9543    1.8321    0.0000 H   0  0  0  0  0  0  0  0  0  0  0  0
   -3.1474    5.2077    0.0000 H   0  0  0  0  0  0  0  0  0  0  0  0
    0.3170    2.0490    0.0000 H   0  0  0  0  0  0  0  0  0  0  0  0
    1.8302    1.1491    0.0000 H   0  0  0  0  0  0  0  0  0  0  0  0
    1.9631   -1.0230    0.0000 H   0  0  0  0  0  0  0  0  0  0  0  0
   -0.7620   -3.0911    0.0000 H   0  0  0  0  0  0  0  0  0  0  0  0
    1.6978   -1.4630    0.0000 H   0  0  0  0  0  0  0  0  0  0  0  0
   -0.0120   -4.3901    0.0000 H   0  0  0  0  0  0  0  0  0  0  0  0
    2.3660   -2.5981    0.0000 H   0  0  0  0  0  0  0  0  0  0  0  0
    4.3590   -5.7261    0.0000 H   0  0  0  0  0  0  0  0  0  0  0  0
    2.2649   -6.8489    0.0000 H   0  0  0  0  0  0  0  0  0  0  0  0
   -0.3138   -5.3601    0.0000 H   0  0  0  0  0  0  0  0  0  0  0  0
    1.6160   -7.9952    0.0000 H   0  0  0  0  0  0  0  0  0  0  0  0
   -1.1830   -9.8433    0.0000 H   0  0  0  0  0  0  0  0  0  0  0  0
   -1.8138   -7.9582    0.0000 H   0  0  0  0  0  0  0  0  0  0  0  0
    0.8660   -9.2942    0.0000 H   0  0  0  0  0  0  0  0  0  0  0  0
   -2.3628   -7.0813    0.0000 H   0  0  0  0  0  0  0  0  0  0  0  0
  1  2  2  3
  2  3  1  0
  3  4  1  0
  4  5  1  0
  5  6  1  0
  5  7  1  0
  7  8  1  0
  8  9  1  0
  9 10  1  0
 10 11  1  0
 11 12  1  0
 10 13  1  0
 13 14  1  0
 14 15  1  0
 15 16  1  0
 16 17  1  0
 17 18  1  0
 18 19  2  3
 18 20  1  0
 20 21  1  0
 21 22  1  0
 21 23  1  0
 15  7  1  0
 15 13  1  0
  1 24  1  0
  1 25  1  0
  2 26  1  0
  4 27  1  0
  4 28  1  0
  5 29  1  0
  7 30  1  0
  8 31  1  0
  8 32  1  0
  9 33  1  0
  9 34  1  0
 10 35  1  0
 11 36  1  0
 11 37  1  0
 12 38  1  0
 13 39  1  0
 14 40  1  0
 14 41  1  0
 16 42  1  0
 16 43  1  0
 17 44  1  0
 17 45  1  0
 19 46  1  0
 20 47  1  0
 20 48  1  0
 21 49  1  0
 22 50  1  0
 22 51  1  0
 22 52  1  0
 23 53  1  0
M  END
$$$$
