
     RDKit          2D

 63 68  0  0  0  0  0  0  0  0999 V2000
   -9.0682   -4.3515    0.0000 N   0  0  0  0  0  0  0  0  0  0  0  0
   -7.5682   -4.3515    0.0000 C   0  0  0  0  0  0  0  0  0  0  0  0
   -7.5682   -2.8515    0.0000 C   0  0  0  0  0  0  0  0  0  0  0  0
   -7.5682   -1.3515    0.0000 C   0  0  0  0  0  0  0  0  0  0  0  0
   -8.8672   -0.6015    0.0000 O   0  0  0  0  0  0  0  0  0  0  0  0
   -7.5682   -5.8515    0.0000 C   0  0  0  0  0  0  0  0  0  0  0  0
   -7.5682   -7.3515    0.0000 C   0  0  0  0  0  0  0  0  0  0  0  0
   -6.0682   -7.3515    0.0000 C   0  0  0  0  0  0  0  0  0  0  0  0
   -6.0682   -8.8515    0.0000 C   0  0  0  0  0  0  0  0  0  0  0  0
   -6.0682  -10.3515    0.0000 O   0  0  0  0  0  0  0  0  0  0  0  0
   -6.0682   -5.8515    0.0000 C   0  0  0  0  0  0  0  0  0  0  0  0
   -4.5682   -5.8515    0.0000 C   0  0  0  0  0  0  0  0  0  0  0  0
   -4.5682   -4.3515    0.0000 C   0  0  0  0  0  0  0  0  0  0  0  0
   -4.5682   -2.8515    0.0000 C   0  0  0  0  0  0  0  0  0  0  0  0
   -4.5682   -1.3515    0.0000 C   0  0  0  0  0  0  0  0  0  0  0  0
   -5.2190    0.0000    0.0000 C   0  0  0  0  0  0  0  0  0  0  0  0
   -4.5682    1.3515    0.0000 C   0  0  0  0  0  0  0  0  0  0  0  0
   -3.1058    1.6852    0.0000 C   0  0  0  0  0  0  0  0  0  0  0  0
   -1.9330    0.7500    0.0000 C   0  0  0  0  0  0  0  0  0  0  0  0
   -0.4330    0.7500    0.0000 C   0  0  0  0  0  0  0  0  0  0  0  0
    0.8660    0.0000    0.0000 C   0  0  0  0  0  0  0  0  0  0  0  0
   -0.4330   -0.7500    0.0000 C   0  0  0  0  0  0  0  0  0  0  0  0
   -1.9330   -0.7500    0.0000 N   0  0  0  0  0  0  0  0  0  0  0  0
   -3.1058   -1.6852    0.0000 C   0  0  0  0  0  0  0  0  0  0  0  0
   -4.5682   -7.3515    0.0000 C   0  0  0  0  0  0  0  0  0  0  0  0
   -3.1193   -7.7397    0.0000 C   0  0  0  0  0  0  0  0  0  0  0  0
   -4.1799   -8.8003    0.0000 C   0  0  0  0  0  0  0  0  0  0  0  0
   -9.9709   -3.1535    0.0000 H   0  0  0  0  0  0  0  0  0  0  0  0
   -9.9709   -5.5494    0.0000 H   0  0  0  0  0  0  0  0  0  0  0  0
   -8.3416   -4.5443    0.0000 H   0  0  0  0  0  0  0  0  0  0  0  0
   -6.0793   -2.6686    0.0000 H   0  0  0  0  0  0  0  0  0  0  0  0
   -9.0570   -2.6686    0.0000 H   0  0  0  0  0  0  0  0  0  0  0  0
   -6.1874   -0.7654    0.0000 H   0  0  0  0  0  0  0  0  0  0  0  0
   -9.0570   -6.0343    0.0000 H   0  0  0  0  0  0  0  0  0  0  0  0
   -9.0682   -7.3515    0.0000 H   0  0  0  0  0  0  0  0  0  0  0  0
   -7.7510   -8.8403    0.0000 H   0  0  0  0  0  0  0  0  0  0  0  0
   -7.5570   -9.0343    0.0000 H   0  0  0  0  0  0  0  0  0  0  0  0
   -4.6127   -9.2144    0.0000 H   0  0  0  0  0  0  0  0  0  0  0  0
   -7.3672  -11.1015    0.0000 H   0  0  0  0  0  0  0  0  0  0  0  0
   -6.2510   -4.3626    0.0000 H   0  0  0  0  0  0  0  0  0  0  0  0
   -3.0793   -5.6686    0.0000 H   0  0  0  0  0  0  0  0  0  0  0  0
   -3.0682   -4.3515    0.0000 H   0  0  0  0  0  0  0  0  0  0  0  0
   -6.0570   -4.1686    0.0000 H   0  0  0  0  0  0  0  0  0  0  0  0
   -3.0793   -3.0343    0.0000 H   0  0  0  0  0  0  0  0  0  0  0  0
   -6.0570   -2.6686    0.0000 H   0  0  0  0  0  0  0  0  0  0  0  0
   -5.9790   -1.8610    0.0000 H   0  0  0  0  0  0  0  0  0  0  0  0
   -6.3917   -0.9352    0.0000 H   0  0  0  0  0  0  0  0  0  0  0  0
   -6.4970    0.7853    0.0000 H   0  0  0  0  0  0  0  0  0  0  0  0
   -5.9790    1.8610    0.0000 H   0  0  0  0  0  0  0  0  0  0  0  0
   -4.7510    2.8403    0.0000 H   0  0  0  0  0  0  0  0  0  0  0  0
   -3.5870    3.1059    0.0000 H   0  0  0  0  0  0  0  0  0  0  0  0
   -2.0558    2.7564    0.0000 H   0  0  0  0  0  0  0  0  0  0  0  0
   -1.2687    2.0949    0.0000 H   0  0  0  0  0  0  0  0  0  0  0  0
   -0.0448    2.1989    0.0000 H   0  0  0  0  0  0  0  0  0  0  0  0
    1.8302    1.1491    0.0000 H   0  0  0  0  0  0  0  0  0  0  0  0
    1.8302   -1.1491    0.0000 H   0  0  0  0  0  0  0  0  0  0  0  0
   -0.0448   -2.1989    0.0000 H   0  0  0  0  0  0  0  0  0  0  0  0
   -1.9330   -2.6205    0.0000 H   0  0  0  0  0  0  0  0  0  0  0  0
   -3.5870   -3.1059    0.0000 H   0  0  0  0  0  0  0  0  0  0  0  0
   -2.3243   -6.4676    0.0000 H   0  0  0  0  0  0  0  0  0  0  0  0
   -1.8905   -8.6000    0.0000 H   0  0  0  0  0  0  0  0  0  0  0  0
   -3.3196  -10.0291    0.0000 H   0  0  0  0  0  0  0  0  0  0  0  0
   -5.3456   -9.7444    0.0000 H   0  0  0  0  0  0  0  0  0  0  0  0
  1  2  1  0
  2  3  1  0
  3  4  1  0
  4  5  2  0
  2  6  1  0
  6  7  1  0
  7  8  1  0
  8  9  1  0
  9 10  1  0
  8 11  1  0
 11 12  1  0
 12 13  1  0
 13 14  1  0
 14 15  1  0
 15 16  1  0
 16 17  1  0
 17 18  1  0
 18 19  1  0
 19 20  1  0
 20 21  1  0
 21 22  1  0
 22 23  1  0
 23 24  1  0
 12 25  1  0
 25 26  1  0
 26 27  1  0
 11  6  1  0
 24 15  1  0
 27 25  1  0
 25  8  1  0
 23 19  1  0
 22 20  1  0
  1 28  1  0
  1 29  1  0
  2 30  1  0
  3 31  1  0
  3 32  1  0
  4 33  1  0
  6 34  1  0
  7 35  1  0
  7 36  1  0
  9 37  1  0
  9 38  1  0
 10 39  1  0
 11 40  1  0
 12 41  1  0
 13 42  1  0
 13 43  1  0
 14 44  1  0
 14 45  1  0
 15 46  1  0
 16 47  1  0
 16 48  1  0
 17 49  1  0
 17 50  1  0
 18 51  1  0
 18 52  1  0
 19 53  1  0
 20 54  1  0
 21 55  1  0
 21 56  1  0
 22 57  1  0
 24 58  1  0
 24 59  1  0
 26 60  1  0
 26 61  1  0
 27 62  1  0
 27 63  1  0
M  END
$$$$
