
     RDKit          2D

 20 23  0  0  0  0  0  0  0  0999 V2000
    1.8302    1.1491    0.0000 O   0  0  0  0  0  0  0  0  0  0  0  0
    0.8660    0.0000    0.0000 C   0  0  0  0  0  0  0  0  0  0  0  0
   -0.4330    0.7500    0.0000 O   0  0  0  0  0  0  0  0  0  0  0  0
   -0.4330   -0.7500    0.0000 C   0  0  0  0  0  0  0  0  0  0  0  0
    0.1771   -2.1203    0.0000 C   0  0  0  0  0  0  0  0  0  0  0  0
   -0.9376   -3.1240    0.0000 C   0  0  0  0  0  0  0  0  0  0  0  0
   -2.2367   -2.3740    0.0000 C   0  0  0  0  0  0  0  0  0  0  0  0
   -1.9248   -0.9068    0.0000 O   0  0  0  0  0  0  0  0  0  0  0  0
   -2.2367   -3.8740    0.0000 C   0  0  0  0  0  0  0  0  0  0  0  0
   -2.2367   -5.3740    0.0000 C   0  0  0  0  0  0  0  0  0  0  0  0
   -3.5357   -4.6240    0.0000 N   0  0  0  0  0  0  0  0  0  0  0  0
    3.3074    0.8886    0.0000 H   0  0  0  0  0  0  0  0  0  0  0  0
    1.7546   -0.8286    0.0000 H   0  0  0  0  0  0  0  0  0  0  0  0
    1.2955   -1.6456    0.0000 H   0  0  0  0  0  0  0  0  0  0  0  0
    1.0588   -3.3338    0.0000 H   0  0  0  0  0  0  0  0  0  0  0  0
   -0.0559   -4.3375    0.0000 H   0  0  0  0  0  0  0  0  0  0  0  0
   -3.7284   -2.2172    0.0000 H   0  0  0  0  0  0  0  0  0  0  0  0
   -0.7595   -5.6345    0.0000 H   0  0  0  0  0  0  0  0  0  0  0  0
   -2.7497   -6.7836    0.0000 H   0  0  0  0  0  0  0  0  0  0  0  0
   -5.0357   -4.6240    0.0000 H   0  0  0  0  0  0  0  0  0  0  0  0
  1  2  1  0
  2  3  1  0
  3  4  1  0
  4  5  1  0
  5  6  1  0
  6  7  1  0
  7  8  1  0
  7  9  1  0
  9 10  1  0
 10 11  1  0
  4  2  1  0
  9  6  1  0
  8  4  1  0
 11  9  1  0
  1 12  1  0
  2 13  1  0
  5 14  1  0
  5 15  1  0
  6 16  1  0
  7 17  1  0
 10 18  1  0
 10 19  1  0
 11 20  1  0
M  END
$$$$
