
     RDKit          2D

 60 66  0  0  0  0  0  0  0  0999 V2000
   -4.8130   -2.8587    0.0000 C   0  0  0  0  0  0  0  0  0  0  0  0
   -3.7134   -1.8384    0.0000 C   0  0  0  0  0  0  0  0  0  0  0  0
   -4.9528   -0.9935    0.0000 C   0  0  0  0  0  0  0  0  0  0  0  0
   -6.3108   -0.3479    0.0000 C   0  0  0  0  0  0  0  0  0  0  0  0
   -6.5344    1.1354    0.0000 C   0  0  0  0  0  0  0  0  0  0  0  0
   -5.3616    2.0706    0.0000 C   0  0  0  0  0  0  0  0  0  0  0  0
   -3.9653    1.5226    0.0000 C   0  0  0  0  0  0  0  0  0  0  0  0
   -5.0649    0.5023    0.0000 C   0  0  0  0  0  0  0  0  0  0  0  0
   -6.4612    1.0504    0.0000 C   0  0  0  0  0  0  0  0  0  0  0  0
   -7.8575    1.5984    0.0000 C   0  0  0  0  0  0  0  0  0  0  0  0
   -9.2538    2.1464    0.0000 C   0  0  0  0  0  0  0  0  0  0  0  0
  -10.6501    2.6944    0.0000 C   0  0  0  0  0  0  0  0  0  0  0  0
  -12.0464    3.2424    0.0000 C   0  0  0  0  0  0  0  0  0  0  0  0
  -13.4427    3.7904    0.0000 C   0  0  0  0  0  0  0  0  0  0  0  0
  -14.8390    4.3384    0.0000 C   0  0  0  0  0  0  0  0  0  0  0  0
  -15.0626    5.8217    0.0000 C   0  0  0  0  0  0  0  0  0  0  0  0
  -16.4589    6.3697    0.0000 C   0  0  0  0  0  0  0  0  0  0  0  0
  -17.6317    5.4344    0.0000 C   0  0  0  0  0  0  0  0  0  0  0  0
  -17.4081    3.9512    0.0000 C   0  0  0  0  0  0  0  0  0  0  0  0
  -16.0118    3.4032    0.0000 C   0  0  0  0  0  0  0  0  0  0  0  0
   -2.4821    1.2990    0.0000 C   0  0  0  0  0  0  0  0  0  0  0  0
   -1.1830    2.0490    0.0000 C   0  0  0  0  0  0  0  0  0  0  0  0
    0.1160    2.7990    0.0000 C   0  0  0  0  0  0  0  0  0  0  0  0
   -0.4330    0.7500    0.0000 C   0  0  0  0  0  0  0  0  0  0  0  0
    0.8660    0.0000    0.0000 C   0  0  0  0  0  0  0  0  0  0  0  0
   -0.4330   -0.7500    0.0000 C   0  0  0  0  0  0  0  0  0  0  0  0
   -2.2801   -1.3963    0.0000 C   0  0  0  0  0  0  0  0  0  0  0  0
   -1.7321    0.0000    0.0000 C   0  0  0  0  0  0  0  0  0  0  0  0
   -5.9126   -3.8790    0.0000 H   0  0  0  0  0  0  0  0  0  0  0  0
   -3.7927   -3.9583    0.0000 H   0  0  0  0  0  0  0  0  0  0  0  0
   -5.8333   -1.7591    0.0000 H   0  0  0  0  0  0  0  0  0  0  0  0
   -2.9634   -3.1375    0.0000 H   0  0  0  0  0  0  0  0  0  0  0  0
   -7.4835   -1.2831    0.0000 H   0  0  0  0  0  0  0  0  0  0  0  0
   -7.7566    2.0050    0.0000 H   0  0  0  0  0  0  0  0  0  0  0  0
   -5.5852    3.5539    0.0000 H   0  0  0  0  0  0  0  0  0  0  0  0
   -6.2673    2.5378    0.0000 H   0  0  0  0  0  0  0  0  0  0  0  0
   -7.3308   -0.1719    0.0000 H   0  0  0  0  0  0  0  0  0  0  0  0
   -8.4055    0.2021    0.0000 H   0  0  0  0  0  0  0  0  0  0  0  0
   -7.3095    2.9947    0.0000 H   0  0  0  0  0  0  0  0  0  0  0  0
   -8.7058    3.5427    0.0000 H   0  0  0  0  0  0  0  0  0  0  0  0
   -9.8018    0.7501    0.0000 H   0  0  0  0  0  0  0  0  0  0  0  0
  -11.1981    1.2981    0.0000 H   0  0  0  0  0  0  0  0  0  0  0  0
  -10.1021    4.0907    0.0000 H   0  0  0  0  0  0  0  0  0  0  0  0
  -11.4984    4.6387    0.0000 H   0  0  0  0  0  0  0  0  0  0  0  0
  -12.5944    1.8461    0.0000 H   0  0  0  0  0  0  0  0  0  0  0  0
  -12.8947    5.1867    0.0000 H   0  0  0  0  0  0  0  0  0  0  0  0
  -13.9908    2.3941    0.0000 H   0  0  0  0  0  0  0  0  0  0  0  0
  -13.8899    6.7569    0.0000 H   0  0  0  0  0  0  0  0  0  0  0  0
  -16.6825    7.8529    0.0000 H   0  0  0  0  0  0  0  0  0  0  0  0
  -19.0280    5.9825    0.0000 H   0  0  0  0  0  0  0  0  0  0  0  0
  -18.5809    3.0160    0.0000 H   0  0  0  0  0  0  0  0  0  0  0  0
  -15.7882    1.9199    0.0000 H   0  0  0  0  0  0  0  0  0  0  0  0
   -2.7609    2.7729    0.0000 H   0  0  0  0  0  0  0  0  0  0  0  0
   -1.9330    3.3481    0.0000 H   0  0  0  0  0  0  0  0  0  0  0  0
    1.4151    3.5490    0.0000 H   0  0  0  0  0  0  0  0  0  0  0  0
   -0.6340    4.0981    0.0000 H   0  0  0  0  0  0  0  0  0  0  0  0
    0.8660    1.5000    0.0000 H   0  0  0  0  0  0  0  0  0  0  0  0
    1.8302    1.1491    0.0000 H   0  0  0  0  0  0  0  0  0  0  0  0
    1.8302   -1.1491    0.0000 H   0  0  0  0  0  0  0  0  0  0  0  0
   -1.2598   -2.4959    0.0000 H   0  0  0  0  0  0  0  0  0  0  0  0
  1  2  1  0
  2  3  1  0
  3  4  2  0
  4  5  1  0
  5  6  2  0
  6  7  1  0
  7  8  2  0
  8  9  1  0
  9 10  1  0
 10 11  1  0
 11 12  1  0
 12 13  1  0
 13 14  1  0
 14 15  1  0
 15 16  2  0
 16 17  1  0
 17 18  2  0
 18 19  1  0
 19 20  2  0
  7 21  1  0
 21 22  1  0
 22 23  1  0
 22 24  1  0
 24 25  1  0
 25 26  1  0
 26 27  1  0
 27 28  1  0
 27  2  1  0
  8  3  1  0
 20 15  1  0
 28 21  1  0
 26 24  1  0
 28 24  1  0
 28 26  1  0
  1 29  1  0
  1 30  1  0
  1 31  1  0
  2 32  1  0
  4 33  1  0
  5 34  1  0
  6 35  1  0
  9 36  1  0
  9 37  1  0
 10 38  1  0
 10 39  1  0
 11 40  1  0
 11 41  1  0
 12 42  1  0
 12 43  1  0
 13 44  1  0
 13 45  1  0
 14 46  1  0
 14 47  1  0
 16 48  1  0
 17 49  1  0
 18 50  1  0
 19 51  1  0
 20 52  1  0
 21 53  1  0
 22 54  1  0
 23 55  1  0
 23 56  1  0
 23 57  1  0
 25 58  1  0
 25 59  1  0
 27 60  1  0
M  END
$$$$
