
     RDKit          2D

 50 52  0  0  0  0  0  0  0  0999 V2000
    3.2286   -0.0000    0.0000 C   0  0  0  0  0  0  0  0  0  0  0  0
    1.7286    0.0000    0.0000 C   0  0  0  0  0  0  0  0  0  0  0  0
    1.0777    1.3515    0.0000 C   0  0  0  0  0  0  0  0  0  0  0  0
   -0.3846    1.6852    0.0000 C   0  0  0  0  0  0  0  0  0  0  0  0
   -1.5574    0.7500    0.0000 C   0  0  0  0  0  0  0  0  0  0  0  0
   -1.5574   -0.7500    0.0000 N   0  0  0  0  0  0  0  0  0  0  0  0
   -0.3846   -1.6852    0.0000 C   0  0  0  0  0  0  0  0  0  0  0  0
    0.2662   -3.0367    0.0000 C   0  0  0  0  0  0  0  0  0  0  0  0
    1.7101   -2.6304    0.0000 C   0  0  0  0  0  0  0  0  0  0  0  0
    0.4155   -4.5292    0.0000 C   0  0  0  0  0  0  0  0  0  0  0  0
   -0.9517   -3.9123    0.0000 C   0  0  0  0  0  0  0  0  0  0  0  0
   -1.7967   -5.1517    0.0000 C   0  0  0  0  0  0  0  0  0  0  0  0
   -2.6417   -6.3910    0.0000 C   0  0  0  0  0  0  0  0  0  0  0  0
   -3.4867   -7.6304    0.0000 C   0  0  0  0  0  0  0  0  0  0  0  0
   -3.8810   -5.5460    0.0000 C   0  0  0  0  0  0  0  0  0  0  0  0
   -4.7260   -6.7854    0.0000 C   0  0  0  0  0  0  0  0  0  0  0  0
   -5.9654   -5.9404    0.0000 C   0  0  0  0  0  0  0  0  0  0  0  0
   -5.1204   -4.7011    0.0000 C   0  0  0  0  0  0  0  0  0  0  0  0
    1.0777   -1.3515    0.0000 C   0  0  0  0  0  0  0  0  0  0  0  0
    3.9786   -1.2990    0.0000 H   0  0  0  0  0  0  0  0  0  0  0  0
    3.9786    1.2990    0.0000 H   0  0  0  0  0  0  0  0  0  0  0  0
    1.2606    2.8403    0.0000 H   0  0  0  0  0  0  0  0  0  0  0  0
    2.5401    1.6852    0.0000 H   0  0  0  0  0  0  0  0  0  0  0  0
   -1.4346    2.7564    0.0000 H   0  0  0  0  0  0  0  0  0  0  0  0
    0.0966    3.1059    0.0000 H   0  0  0  0  0  0  0  0  0  0  0  0
   -3.0198    0.4162    0.0000 H   0  0  0  0  0  0  0  0  0  0  0  0
   -2.3681    2.0120    0.0000 H   0  0  0  0  0  0  0  0  0  0  0  0
   -2.9088   -1.4008    0.0000 H   0  0  0  0  0  0  0  0  0  0  0  0
   -1.6626   -2.4705    0.0000 H   0  0  0  0  0  0  0  0  0  0  0  0
    3.1928   -2.4032    0.0000 H   0  0  0  0  0  0  0  0  0  0  0  0
    2.2894   -4.0141    0.0000 H   0  0  0  0  0  0  0  0  0  0  0  0
    1.6863   -1.8336    0.0000 H   0  0  0  0  0  0  0  0  0  0  0  0
    1.8865   -4.8228    0.0000 H   0  0  0  0  0  0  0  0  0  0  0  0
    0.2253   -6.0171    0.0000 H   0  0  0  0  0  0  0  0  0  0  0  0
   -2.1452   -3.0037    0.0000 H   0  0  0  0  0  0  0  0  0  0  0  0
   -3.0361   -4.3067    0.0000 H   0  0  0  0  0  0  0  0  0  0  0  0
   -0.6696   -6.1414    0.0000 H   0  0  0  0  0  0  0  0  0  0  0  0
   -1.4023   -7.2360    0.0000 H   0  0  0  0  0  0  0  0  0  0  0  0
   -4.3316   -8.8697    0.0000 H   0  0  0  0  0  0  0  0  0  0  0  0
   -2.3595   -8.6201    0.0000 H   0  0  0  0  0  0  0  0  0  0  0  0
   -2.1535   -8.3180    0.0000 H   0  0  0  0  0  0  0  0  0  0  0  0
   -4.4010   -6.9530    0.0000 H   0  0  0  0  0  0  0  0  0  0  0  0
   -5.5710   -8.0248    0.0000 H   0  0  0  0  0  0  0  0  0  0  0  0
   -3.7280   -7.9052    0.0000 H   0  0  0  0  0  0  0  0  0  0  0  0
   -7.2047   -5.0954    0.0000 H   0  0  0  0  0  0  0  0  0  0  0  0
   -6.8104   -7.1798    0.0000 H   0  0  0  0  0  0  0  0  0  0  0  0
   -4.2754   -3.4617    0.0000 H   0  0  0  0  0  0  0  0  0  0  0  0
   -6.3598   -3.8561    0.0000 H   0  0  0  0  0  0  0  0  0  0  0  0
    2.5699   -1.5045    0.0000 H   0  0  0  0  0  0  0  0  0  0  0  0
    1.4407   -2.8069    0.0000 H   0  0  0  0  0  0  0  0  0  0  0  0
  1  2  2  3
  2  3  1  0
  3  4  1  0
  4  5  1  0
  5  6  1  0
  6  7  1  0
  7  8  1  0
  8  9  1  0
  8 10  1  0
 10 11  1  0
 11 12  1  0
 12 13  1  0
 13 14  1  0
 13 15  1  0
 15 16  1  0
 16 17  1  0
 17 18  1  0
  7 19  1  0
 19  2  1  0
 11  8  1  0
 18 15  1  0
  1 20  1  0
  1 21  1  0
  3 22  1  0
  3 23  1  0
  4 24  1  0
  4 25  1  0
  5 26  1  0
  5 27  1  0
  6 28  1  0
  7 29  1  0
  9 30  1  0
  9 31  1  0
  9 32  1  0
 10 33  1  0
 10 34  1  0
 11 35  1  0
 12 36  1  0
 12 37  1  0
 13 38  1  0
 14 39  1  0
 14 40  1  0
 14 41  1  0
 15 42  1  0
 16 43  1  0
 16 44  1  0
 17 45  1  0
 17 46  1  0
 18 47  1  0
 18 48  1  0
 19 49  1  0
 19 50  1  0
M  END
$$$$
