
     RDKit          2D

 59 61  0  0  0  0  0  0  0  0999 V2000
   -1.3840   -2.7990    0.0000 C   0  0  0  0  0  0  0  0  0  0  0  0
   -0.6340   -1.5000    0.0000 C   0  0  0  0  0  0  0  0  0  0  0  0
    0.8660   -1.5000    0.0000 C   0  0  0  0  0  0  0  0  0  0  0  0
    2.3660   -1.5000    0.0000 C   0  0  0  0  0  0  0  0  0  0  0  0
    2.5489   -2.9888    0.0000 F   0  0  0  0  0  0  0  0  0  0  0  0
    3.8660   -1.5000    0.0000 C   0  0  0  0  0  0  0  0  0  0  0  0
    5.3660   -1.5000    0.0000 C   0  0  0  0  0  0  0  0  0  0  0  0
    3.8660    0.0000    0.0000 C   0  0  0  0  0  0  0  0  0  0  0  0
    3.8660    1.5000    0.0000 C   0  0  0  0  0  0  0  0  0  0  0  0
    2.3660    0.0000    0.0000 C   0  0  0  0  0  0  0  0  0  0  0  0
    0.8660    0.0000    0.0000 N   0  0  0  0  0  0  0  0  0  0  0  0
   -0.4330    0.7500    0.0000 C   0  0  0  0  0  0  0  0  0  0  0  0
   -0.4330   -0.7500    0.0000 C   0  0  0  0  0  0  0  0  0  0  0  0
   -1.9330   -0.7500    0.0000 C   0  0  0  0  0  0  0  0  0  0  0  0
   -2.6830   -2.0490    0.0000 C   0  0  0  0  0  0  0  0  0  0  0  0
   -1.9330   -3.3481    0.0000 C   0  0  0  0  0  0  0  0  0  0  0  0
   -1.1830   -4.6471    0.0000 C   0  0  0  0  0  0  0  0  0  0  0  0
   -0.4330   -3.3481    0.0000 C   0  0  0  0  0  0  0  0  0  0  0  0
    0.3170   -2.0490    0.0000 C   0  0  0  0  0  0  0  0  0  0  0  0
    1.4661   -1.0849    0.0000 C   0  0  0  0  0  0  0  0  0  0  0  0
    2.6151   -0.1207    0.0000 C   0  0  0  0  0  0  0  0  0  0  0  0
    3.7642    0.8435    0.0000 C   0  0  0  0  0  0  0  0  0  0  0  0
    4.9133    1.8077    0.0000 N   0  0  0  0  0  0  0  0  0  0  0  0
    4.6528    3.2849    0.0000 S   0  0  0  0  0  0  0  0  0  0  0  0
   -2.8394   -3.1620    0.0000 H   0  0  0  0  0  0  0  0  0  0  0  0
   -1.3318   -4.2981    0.0000 H   0  0  0  0  0  0  0  0  0  0  0  0
   -1.6760   -0.4210    0.0000 H   0  0  0  0  0  0  0  0  0  0  0  0
    0.8660   -3.0000    0.0000 H   0  0  0  0  0  0  0  0  0  0  0  0
    1.2290   -2.9554    0.0000 H   0  0  0  0  0  0  0  0  0  0  0  0
    2.9037   -2.9003    0.0000 H   0  0  0  0  0  0  0  0  0  0  0  0
    3.8660   -3.0000    0.0000 H   0  0  0  0  0  0  0  0  0  0  0  0
    6.8660   -1.5000    0.0000 H   0  0  0  0  0  0  0  0  0  0  0  0
    5.3660   -3.0000    0.0000 H   0  0  0  0  0  0  0  0  0  0  0  0
    5.7290   -0.0446    0.0000 H   0  0  0  0  0  0  0  0  0  0  0  0
    5.3660    0.0000    0.0000 H   0  0  0  0  0  0  0  0  0  0  0  0
    3.5031    2.9554    0.0000 H   0  0  0  0  0  0  0  0  0  0  0  0
    5.3214    1.8630    0.0000 H   0  0  0  0  0  0  0  0  0  0  0  0
    2.4657    2.0377    0.0000 H   0  0  0  0  0  0  0  0  0  0  0  0
    2.1832   -1.4888    0.0000 H   0  0  0  0  0  0  0  0  0  0  0  0
    1.8284    1.4003    0.0000 H   0  0  0  0  0  0  0  0  0  0  0  0
   -1.8675    1.1886    0.0000 H   0  0  0  0  0  0  0  0  0  0  0  0
    0.0800    2.1595    0.0000 H   0  0  0  0  0  0  0  0  0  0  0  0
   -3.3426   -0.2370    0.0000 H   0  0  0  0  0  0  0  0  0  0  0  0
   -1.8545    0.7479    0.0000 H   0  0  0  0  0  0  0  0  0  0  0  0
   -3.8321   -3.0132    0.0000 H   0  0  0  0  0  0  0  0  0  0  0  0
   -3.8321   -1.0849    0.0000 H   0  0  0  0  0  0  0  0  0  0  0  0
   -3.2321   -4.0981    0.0000 H   0  0  0  0  0  0  0  0  0  0  0  0
   -2.3321   -5.6113    0.0000 H   0  0  0  0  0  0  0  0  0  0  0  0
   -0.0339   -5.6113    0.0000 H   0  0  0  0  0  0  0  0  0  0  0  0
   -1.9321   -3.2959    0.0000 H   0  0  0  0  0  0  0  0  0  0  0  0
    0.8787   -3.4399    0.0000 H   0  0  0  0  0  0  0  0  0  0  0  0
    1.5966   -2.5792    0.0000 H   0  0  0  0  0  0  0  0  0  0  0  0
    0.8086    0.2634    0.0000 H   0  0  0  0  0  0  0  0  0  0  0  0
    3.2726   -1.4689    0.0000 H   0  0  0  0  0  0  0  0  0  0  0  0
    1.6509    1.0284    0.0000 H   0  0  0  0  0  0  0  0  0  0  0  0
    4.9778   -0.0381    0.0000 H   0  0  0  0  0  0  0  0  0  0  0  0
    2.8000    1.9926    0.0000 H   0  0  0  0  0  0  0  0  0  0  0  0
    6.3228    1.2947    0.0000 H   0  0  0  0  0  0  0  0  0  0  0  0
    5.8018    4.2491    0.0000 H   0  0  0  0  0  0  0  0  0  0  0  0
  1  2  2  3
  2  3  1  0
  3  4  1  0
  4  5  1  0
  4  6  1  0
  6  7  1  0
  6  8  1  0
  8  9  1  0
  8 10  1  0
 10 11  1  0
 11 12  1  0
 12 13  1  0
 13 14  1  0
 14 15  1  0
 15 16  1  0
 16 17  1  0
 17 18  1  0
 18 19  1  0
 19 20  1  0
 20 21  1  0
 21 22  1  0
 22 23  1  0
 23 24  1  0
 13 11  1  0
 18 16  1  0
 19 13  1  0
  1 25  1  0
  1 26  1  0
  2 27  1  0
  3 28  1  0
  3 29  1  0
  4 30  1  0
  6 31  1  0
  7 32  1  0
  7 33  1  0
  7 34  1  0
  8 35  1  0
  9 36  1  0
  9 37  1  0
  9 38  1  0
 10 39  1  0
 10 40  1  0
 12 41  1  0
 12 42  1  0
 14 43  1  0
 14 44  1  0
 15 45  1  0
 15 46  1  0
 16 47  1  0
 17 48  1  0
 17 49  1  0
 18 50  1  0
 19 51  1  0
 20 52  1  0
 20 53  1  0
 21 54  1  0
 21 55  1  0
 22 56  1  0
 22 57  1  0
 23 58  1  0
 24 59  1  0
M  END
$$$$
