
     RDKit          2D

116122  0  0  0  0  0  0  0  0999 V2000
    6.8270   -6.7486    0.0000 C   0  0  0  0  0  0  0  0  0  0  0  0
    5.4307   -7.2966    0.0000 C   0  0  0  0  0  0  0  0  0  0  0  0
    4.2580   -6.3614    0.0000 C   0  0  0  0  0  0  0  0  0  0  0  0
    3.0852   -5.4262    0.0000 C   0  0  0  0  0  0  0  0  0  0  0  0
    1.9125   -4.4909    0.0000 C   0  0  0  0  0  0  0  0  0  0  0  0
    0.7397   -3.5557    0.0000 C   0  0  0  0  0  0  0  0  0  0  0  0
   -0.4330   -2.6205    0.0000 C   0  0  0  0  0  0  0  0  0  0  0  0
   -1.6058   -1.6852    0.0000 C   0  0  0  0  0  0  0  0  0  0  0  0
   -3.0682   -1.3515    0.0000 C   0  0  0  0  0  0  0  0  0  0  0  0
   -3.7190    0.0000    0.0000 C   0  0  0  0  0  0  0  0  0  0  0  0
   -3.0682    1.3515    0.0000 C   0  0  0  0  0  0  0  0  0  0  0  0
   -1.6058    1.6852    0.0000 C   0  0  0  0  0  0  0  0  0  0  0  0
   -2.2566    3.0367    0.0000 C   0  0  0  0  0  0  0  0  0  0  0  0
   -0.4330    0.7500    0.0000 C   0  0  0  0  0  0  0  0  0  0  0  0
    0.8660    0.0000    0.0000 C   0  0  0  0  0  0  0  0  0  0  0  0
   -0.4330   -0.7500    0.0000 C   0  0  0  0  0  0  0  0  0  0  0  0
    0.1230   -2.1431    0.0000 C   0  0  0  0  0  0  0  0  0  0  0  0
   -0.0321   -3.6351    0.0000 C   0  0  0  0  0  0  0  0  0  0  0  0
   -0.8627   -4.8841    0.0000 C   0  0  0  0  0  0  0  0  0  0  0  0
   -0.6562   -6.3698    0.0000 C   0  0  0  0  0  0  0  0  0  0  0  0
   -2.1787   -5.6040    0.0000 C   0  0  0  0  0  0  0  0  0  0  0  0
   -2.9061   -6.9158    0.0000 C   0  0  0  0  0  0  0  0  0  0  0  0
   -3.6784   -5.6299    0.0000 C   0  0  0  0  0  0  0  0  0  0  0  0
   -5.0185   -4.9558    0.0000 Si  0  0  0  0  0  4  0  0  0  0  0  0
   -5.8917   -3.7363    0.0000 C   0  0  0  0  0  0  0  0  0  0  0  0
   -6.0982   -2.2505    0.0000 C   0  0  0  0  0  0  0  0  0  0  0  0
   -7.5902   -2.0955    0.0000 C   0  0  0  0  0  0  0  0  0  0  0  0
   -9.0821   -1.9404    0.0000 C   0  0  0  0  0  0  0  0  0  0  0  0
   -5.5906   -0.8390    0.0000 C   0  0  0  0  0  0  0  0  0  0  0  0
   -6.1466    0.5541    0.0000 C   0  0  0  0  0  0  0  0  0  0  0  0
   -6.5139   -5.0722    0.0000 C   0  0  0  0  0  0  0  0  0  0  0  0
   -6.3975   -6.5677    0.0000 C   0  0  0  0  0  0  0  0  0  0  0  0
   -4.9021   -6.4513    0.0000 C   0  0  0  0  0  0  0  0  0  0  0  0
   -4.7857   -7.9468    0.0000 C   0  0  0  0  0  0  0  0  0  0  0  0
   -4.6693   -9.4423    0.0000 C   0  0  0  0  0  0  0  0  0  0  0  0
   -4.5529  -10.9377    0.0000 C   0  0  0  0  0  0  0  0  0  0  0  0
   -3.0599  -11.0828    0.0000 C   0  0  0  0  0  0  0  0  0  0  0  0
   -1.5669  -11.2279    0.0000 C   0  0  0  0  0  0  0  0  0  0  0  0
   -0.0740  -11.3729    0.0000 C   0  0  0  0  0  0  0  0  0  0  0  0
   -6.0054  -11.3121    0.0000 C   0  0  0  0  0  0  0  0  0  0  0  0
   -6.4075  -12.7572    0.0000 C   0  0  0  0  0  0  0  0  0  0  0  0
   -6.2911  -14.2526    0.0000 C   0  0  0  0  0  0  0  0  0  0  0  0
   -6.1747  -15.7481    0.0000 C   0  0  0  0  0  0  0  0  0  0  0  0
   -4.9550  -12.3828    0.0000 C   0  0  0  0  0  0  0  0  0  0  0  0
    7.9998   -7.6839    0.0000 H   0  0  0  0  0  0  0  0  0  0  0  0
    7.0506   -5.2654    0.0000 H   0  0  0  0  0  0  0  0  0  0  0  0
    5.2072   -8.7799    0.0000 H   0  0  0  0  0  0  0  0  0  0  0  0
    3.3227   -7.5342    0.0000 H   0  0  0  0  0  0  0  0  0  0  0  0
    5.1932   -5.1887    0.0000 H   0  0  0  0  0  0  0  0  0  0  0  0
    4.0205   -4.2534    0.0000 H   0  0  0  0  0  0  0  0  0  0  0  0
    2.1500   -6.5989    0.0000 H   0  0  0  0  0  0  0  0  0  0  0  0
    1.4598   -5.9210    0.0000 H   0  0  0  0  0  0  0  0  0  0  0  0
    2.8477   -3.3182    0.0000 H   0  0  0  0  0  0  0  0  0  0  0  0
    0.1161   -4.9199    0.0000 H   0  0  0  0  0  0  0  0  0  0  0  0
    1.6750   -2.3830    0.0000 H   0  0  0  0  0  0  0  0  0  0  0  0
   -1.3682   -3.7932    0.0000 H   0  0  0  0  0  0  0  0  0  0  0  0
    0.1363   -2.0625    0.0000 H   0  0  0  0  0  0  0  0  0  0  0  0
   -2.0870   -3.1059    0.0000 H   0  0  0  0  0  0  0  0  0  0  0  0
   -4.5305   -1.6852    0.0000 H   0  0  0  0  0  0  0  0  0  0  0  0
   -3.2510   -2.8403    0.0000 H   0  0  0  0  0  0  0  0  0  0  0  0
   -5.2190    0.0000    0.0000 H   0  0  0  0  0  0  0  0  0  0  0  0
   -3.2510    2.8403    0.0000 H   0  0  0  0  0  0  0  0  0  0  0  0
   -4.4790    1.8610    0.0000 H   0  0  0  0  0  0  0  0  0  0  0  0
   -0.4330    2.6205    0.0000 H   0  0  0  0  0  0  0  0  0  0  0  0
   -0.9051    3.6875    0.0000 H   0  0  0  0  0  0  0  0  0  0  0  0
   -3.6773    2.5555    0.0000 H   0  0  0  0  0  0  0  0  0  0  0  0
   -2.9074    4.3881    0.0000 H   0  0  0  0  0  0  0  0  0  0  0  0
    0.4120    1.9894    0.0000 H   0  0  0  0  0  0  0  0  0  0  0  0
    1.8302    1.1491    0.0000 H   0  0  0  0  0  0  0  0  0  0  0  0
    1.9631   -1.0230    0.0000 H   0  0  0  0  0  0  0  0  0  0  0  0
    1.4409   -1.4268    0.0000 H   0  0  0  0  0  0  0  0  0  0  0  0
    1.5863   -2.4729    0.0000 H   0  0  0  0  0  0  0  0  0  0  0  0
    1.4285   -3.9769    0.0000 H   0  0  0  0  0  0  0  0  0  0  0  0
    0.8412   -4.8547    0.0000 H   0  0  0  0  0  0  0  0  0  0  0  0
    0.4755   -5.5618    0.0000 H   0  0  0  0  0  0  0  0  0  0  0  0
    0.8436   -6.3460    0.0000 H   0  0  0  0  0  0  0  0  0  0  0  0
   -2.1420   -6.5763    0.0000 H   0  0  0  0  0  0  0  0  0  0  0  0
   -0.4498   -7.8555    0.0000 H   0  0  0  0  0  0  0  0  0  0  0  0
   -1.4099   -6.8920    0.0000 H   0  0  0  0  0  0  0  0  0  0  0  0
   -1.7406   -7.8600    0.0000 H   0  0  0  0  0  0  0  0  0  0  0  0
   -3.6105   -8.2401    0.0000 H   0  0  0  0  0  0  0  0  0  0  0  0
   -4.4023   -6.9437    0.0000 H   0  0  0  0  0  0  0  0  0  0  0  0
   -7.2067   -4.4580    0.0000 H   0  0  0  0  0  0  0  0  0  0  0  0
   -7.9260   -3.5574    0.0000 H   0  0  0  0  0  0  0  0  0  0  0  0
   -7.8007   -0.6103    0.0000 H   0  0  0  0  0  0  0  0  0  0  0  0
   -8.9271   -0.4484    0.0000 H   0  0  0  0  0  0  0  0  0  0  0  0
   -9.2372   -3.4323    0.0000 H   0  0  0  0  0  0  0  0  0  0  0  0
  -10.5741   -1.7853    0.0000 H   0  0  0  0  0  0  0  0  0  0  0  0
   -7.0824   -0.6819    0.0000 H   0  0  0  0  0  0  0  0  0  0  0  0
   -7.5972    0.1720    0.0000 H   0  0  0  0  0  0  0  0  0  0  0  0
   -4.8317    1.2758    0.0000 H   0  0  0  0  0  0  0  0  0  0  0  0
   -6.7027    1.9472    0.0000 H   0  0  0  0  0  0  0  0  0  0  0  0
   -8.0094   -5.1886    0.0000 H   0  0  0  0  0  0  0  0  0  0  0  0
   -6.9887   -3.6494    0.0000 H   0  0  0  0  0  0  0  0  0  0  0  0
   -6.4643   -8.0662    0.0000 H   0  0  0  0  0  0  0  0  0  0  0  0
   -7.8930   -6.6841    0.0000 H   0  0  0  0  0  0  0  0  0  0  0  0
   -3.5271   -7.0508    0.0000 H   0  0  0  0  0  0  0  0  0  0  0  0
   -6.2558   -8.2446    0.0000 H   0  0  0  0  0  0  0  0  0  0  0  0
   -3.2872   -8.0136    0.0000 H   0  0  0  0  0  0  0  0  0  0  0  0
   -3.1991   -9.1444    0.0000 H   0  0  0  0  0  0  0  0  0  0  0  0
   -6.1647   -9.5587    0.0000 H   0  0  0  0  0  0  0  0  0  0  0  0
   -3.2050  -12.5758    0.0000 H   0  0  0  0  0  0  0  0  0  0  0  0
   -2.7339   -9.6186    0.0000 H   0  0  0  0  0  0  0  0  0  0  0  0
   -1.7120  -12.7208    0.0000 H   0  0  0  0  0  0  0  0  0  0  0  0
   -1.4219   -9.7349    0.0000 H   0  0  0  0  0  0  0  0  0  0  0  0
   -0.2190  -12.8659    0.0000 H   0  0  0  0  0  0  0  0  0  0  0  0
    0.0711   -9.8799    0.0000 H   0  0  0  0  0  0  0  0  0  0  0  0
    1.4190  -11.5180    0.0000 H   0  0  0  0  0  0  0  0  0  0  0  0
   -7.0559  -10.2413    0.0000 H   0  0  0  0  0  0  0  0  0  0  0  0
   -7.9005  -12.6121    0.0000 H   0  0  0  0  0  0  0  0  0  0  0  0
   -7.7866  -14.3690    0.0000 H   0  0  0  0  0  0  0  0  0  0  0  0
   -4.7956  -14.1362    0.0000 H   0  0  0  0  0  0  0  0  0  0  0  0
   -7.6702  -15.8645    0.0000 H   0  0  0  0  0  0  0  0  0  0  0  0
   -4.6792  -15.6317    0.0000 H   0  0  0  0  0  0  0  0  0  0  0  0
   -6.0583  -17.2436    0.0000 H   0  0  0  0  0  0  0  0  0  0  0  0
   -3.9045  -13.4536    0.0000 H   0  0  0  0  0  0  0  0  0  0  0  0
  1  2  2  0
  2  3  1  0
  3  4  1  0
  4  5  1  0
  5  6  1  0
  6  7  1  0
  7  8  1  0
  8  9  1  0
  9 10  1  0
 10 11  1  0
 11 12  1  0
 12 13  1  0
 12 14  1  0
 14 15  1  0
 15 16  1  0
 16 17  1  0
 17 18  1  0
 18 19  1  0
 19 20  1  0
 19 21  1  0
 21 22  1  0
 22 23  1  0
 23 24  1  0
 24 25  1  0
 25 26  2  0
 26 27  1  0
 27 28  1  0
 26 29  1  0
 29 30  1  0
 24 31  1  0
 31 32  1  0
 32 33  1  0
 33 34  1  0
 34 35  1  0
 35 36  1  0
 36 37  1  0
 37 38  1  0
 38 39  1  0
 36 40  1  0
 40 41  1  0
 41 42  1  0
 42 43  1  0
 41 44  1  0
 16  8  1  0
 23 21  1  0
 33 24  1  0
 44 36  1  0
 29 10  1  0
 44 40  1  0
 16 14  1  0
  1 45  1  0
  1 46  1  0
  2 47  1  0
  3 48  1  0
  3 49  1  0
  4 50  1  0
  4 51  1  0
  5 52  1  0
  5 53  1  0
  6 54  1  0
  6 55  1  0
  7 56  1  0
  7 57  1  0
  8 58  1  0
  9 59  1  0
  9 60  1  0
 10 61  1  0
 11 62  1  0
 11 63  1  0
 12 64  1  0
 13 65  1  0
 13 66  1  0
 13 67  1  0
 14 68  1  0
 15 69  1  0
 15 70  1  0
 17 71  1  0
 17 72  1  0
 18 73  1  0
 18 74  1  0
 19 75  1  0
 20 76  1  0
 20 77  1  0
 20 78  1  0
 21 79  1  0
 22 80  1  0
 22 81  1  0
 23 82  1  0
 25 83  1  0
 27 84  1  0
 27 85  1  0
 28 86  1  0
 28 87  1  0
 28 88  1  0
 29 89  1  0
 30 90  1  0
 30 91  1  0
 30 92  1  0
 31 93  1  0
 31 94  1  0
 32 95  1  0
 32 96  1  0
 33 97  1  0
 34 98  1  0
 34 99  1  0
 35100  1  0
 35101  1  0
 37102  1  0
 37103  1  0
 38104  1  0
 38105  1  0
 39106  1  0
 39107  1  0
 39108  1  0
 40109  1  0
 41110  1  0
 42111  1  0
 42112  1  0
 43113  1  0
 43114  1  0
 43115  1  0
 44116  1  0
M  END
$$$$
