
     RDKit          2D

103112  0  0  0  0  0  0  0  0999 V2000
    8.9292  -10.5880    0.0000 C   0  0  0  0  0  0  0  0  0  0  0  0
    9.0599  -12.0823    0.0000 C   0  0  0  0  0  0  0  0  0  0  0  0
    9.1906  -13.5765    0.0000 C   0  0  0  0  0  0  0  0  0  0  0  0
    9.3214  -15.0708    0.0000 C   0  0  0  0  0  0  0  0  0  0  0  0
    7.8271  -15.2016    0.0000 C   0  0  0  0  0  0  0  0  0  0  0  0
    7.9578  -16.6959    0.0000 Al  0  0  0  0  0  3  0  0  0  0  0  0
    7.6963  -13.7073    0.0000 C   0  0  0  0  0  0  0  0  0  0  0  0
    6.2020  -13.8380    0.0000 C   0  0  0  0  0  0  0  0  0  0  0  0
    4.7078  -13.9687    0.0000 C   0  0  0  0  0  0  0  0  0  0  0  0
    3.2733  -14.4073    0.0000 C   0  0  0  0  0  0  0  0  0  0  0  0
    2.4129  -13.1786    0.0000 C   0  0  0  0  0  0  0  0  0  0  0  0
    1.2809  -14.1627    0.0000 C   0  0  0  0  0  0  0  0  0  0  0  0
   -0.1195  -14.7002    0.0000 C   0  0  0  0  0  0  0  0  0  0  0  0
    0.1151  -13.2187    0.0000 C   0  0  0  0  0  0  0  0  0  0  0  0
   -1.3031  -12.7303    0.0000 C   0  0  0  0  0  0  0  0  0  0  0  0
   -2.7214  -12.2420    0.0000 C   0  0  0  0  0  0  0  0  0  0  0  0
    3.3157  -11.9806    0.0000 C   0  0  0  0  0  0  0  0  0  0  0  0
    4.4477  -10.9965    0.0000 C   0  0  0  0  0  0  0  0  0  0  0  0
    5.8481  -10.4590    0.0000 N   0  0  0  0  0  0  0  0  0  0  0  0
    6.0827   -8.9775    0.0000 C   0  0  0  0  0  0  0  0  0  0  0  0
    5.7965   -7.5050    0.0000 C   0  0  0  0  0  0  0  0  0  0  0  0
    4.6645   -8.4891    0.0000 C   0  0  0  0  0  0  0  0  0  0  0  0
    3.4987   -7.5451    0.0000 C   0  0  0  0  0  0  0  0  0  0  0  0
    2.0984   -8.0827    0.0000 C   0  0  0  0  0  0  0  0  0  0  0  0
    2.3330   -6.6011    0.0000 C   0  0  0  0  0  0  0  0  0  0  0  0
    1.1673   -5.6572    0.0000 N   0  0  0  0  0  0  0  0  0  0  0  0
   -0.2331   -6.1947    0.0000 C   0  0  0  0  0  0  0  0  0  0  0  0
   -1.6334   -6.7323    0.0000 C   0  0  0  0  0  0  0  0  0  0  0  0
   -3.0338   -7.2698    0.0000 N   0  0  0  0  0  0  0  0  0  0  0  0
   -0.7706   -4.7943    0.0000 N   0  0  0  0  0  0  0  0  0  0  0  0
   -2.2521   -4.5597    0.0000 C   0  0  0  0  0  0  0  0  0  0  0  0
   -3.7337   -4.3250    0.0000 C   0  0  0  0  0  0  0  0  0  0  0  0
   -4.6777   -5.4908    0.0000 O   0  0  0  0  0  0  0  0  0  0  0  0
   -2.0175   -3.0782    0.0000 N   0  0  0  0  0  0  0  0  0  0  0  0
   -3.0782   -2.0175    0.0000 C   0  0  0  0  0  0  0  0  0  0  0  0
   -2.3972   -0.6810    0.0000 C   0  0  0  0  0  0  0  0  0  0  0  0
   -2.1625   -2.1625    0.0000 C   0  0  0  0  0  0  0  0  0  0  0  0
   -0.6810   -2.3972    0.0000 C   0  0  0  0  0  0  0  0  0  0  0  0
   -0.0000   -1.0607    0.0000 C   0  0  0  0  0  0  0  0  0  0  0  0
    1.0607    0.0000    0.0000 N   0  0  0  0  0  0  0  0  0  0  0  0
    0.0000    1.0607    0.0000 C   0  0  0  0  0  0  0  0  0  0  0  0
   -1.0607    0.0000    0.0000 C   0  0  0  0  0  0  0  0  0  0  0  0
    3.7334   -6.0636    0.0000 C   0  0  0  0  0  0  0  0  0  0  0  0
    4.7339  -12.4690    0.0000 C   0  0  0  0  0  0  0  0  0  0  0  0
    8.7984   -9.0937    0.0000 H   0  0  0  0  0  0  0  0  0  0  0  0
   10.4235  -10.4572    0.0000 H   0  0  0  0  0  0  0  0  0  0  0  0
    7.4620  -10.8999    0.0000 H   0  0  0  0  0  0  0  0  0  0  0  0
    8.1747  -12.0513    0.0000 H   0  0  0  0  0  0  0  0  0  0  0  0
   10.5542  -11.9515    0.0000 H   0  0  0  0  0  0  0  0  0  0  0  0
   10.6849  -13.4458    0.0000 H   0  0  0  0  0  0  0  0  0  0  0  0
   10.8157  -14.9401    0.0000 H   0  0  0  0  0  0  0  0  0  0  0  0
    9.6333  -16.5381    0.0000 H   0  0  0  0  0  0  0  0  0  0  0  0
    6.9607  -15.3858    0.0000 H   0  0  0  0  0  0  0  0  0  0  0  0
    6.7291  -17.5562    0.0000 H   0  0  0  0  0  0  0  0  0  0  0  0
    9.2299  -17.4908    0.0000 H   0  0  0  0  0  0  0  0  0  0  0  0
    7.5122  -12.8409    0.0000 H   0  0  0  0  0  0  0  0  0  0  0  0
    6.2544  -12.3389    0.0000 H   0  0  0  0  0  0  0  0  0  0  0  0
    6.1711  -14.7232    0.0000 H   0  0  0  0  0  0  0  0  0  0  0  0
    4.9940  -15.4412    0.0000 H   0  0  0  0  0  0  0  0  0  0  0  0
    3.8594  -15.7881    0.0000 H   0  0  0  0  0  0  0  0  0  0  0  0
    2.5567  -14.9279    0.0000 H   0  0  0  0  0  0  0  0  0  0  0  0
    1.4488  -12.0295    0.0000 H   0  0  0  0  0  0  0  0  0  0  0  0
    1.6411  -14.9718    0.0000 H   0  0  0  0  0  0  0  0  0  0  0  0
    0.1667  -16.1727    0.0000 H   0  0  0  0  0  0  0  0  0  0  0  0
   -1.6049  -14.9090    0.0000 H   0  0  0  0  0  0  0  0  0  0  0  0
    0.6770  -11.8279    0.0000 H   0  0  0  0  0  0  0  0  0  0  0  0
   -0.8148  -11.3121    0.0000 H   0  0  0  0  0  0  0  0  0  0  0  0
   -1.9607  -14.0785    0.0000 H   0  0  0  0  0  0  0  0  0  0  0  0
   -4.1397  -11.7536    0.0000 H   0  0  0  0  0  0  0  0  0  0  0  0
   -3.2098  -13.6603    0.0000 H   0  0  0  0  0  0  0  0  0  0  0  0
   -2.2331  -10.8237    0.0000 H   0  0  0  0  0  0  0  0  0  0  0  0
    2.2186  -10.9576    0.0000 H   0  0  0  0  0  0  0  0  0  0  0  0
    3.5242   -9.8145    0.0000 H   0  0  0  0  0  0  0  0  0  0  0  0
    6.8900  -11.5380    0.0000 H   0  0  0  0  0  0  0  0  0  0  0  0
    7.5825   -8.9513    0.0000 H   0  0  0  0  0  0  0  0  0  0  0  0
    7.1969   -6.9675    0.0000 H   0  0  0  0  0  0  0  0  0  0  0  0
    5.1865   -6.1347    0.0000 H   0  0  0  0  0  0  0  0  0  0  0  0
    3.7828   -9.7026    0.0000 H   0  0  0  0  0  0  0  0  0  0  0  0
    2.3846   -9.5551    0.0000 H   0  0  0  0  0  0  0  0  0  0  0  0
    0.6130   -8.2915    0.0000 H   0  0  0  0  0  0  0  0  0  0  0  0
    1.4020   -4.1756    0.0000 H   0  0  0  0  0  0  0  0  0  0  0  0
    0.1298   -7.6502    0.0000 H   0  0  0  0  0  0  0  0  0  0  0  0
   -1.0959   -8.1326    0.0000 H   0  0  0  0  0  0  0  0  0  0  0  0
   -2.6372   -5.6176    0.0000 H   0  0  0  0  0  0  0  0  0  0  0  0
   -3.2685   -8.7513    0.0000 H   0  0  0  0  0  0  0  0  0  0  0  0
   -4.1995   -6.3258    0.0000 H   0  0  0  0  0  0  0  0  0  0  0  0
    0.3084   -3.7524    0.0000 H   0  0  0  0  0  0  0  0  0  0  0  0
   -2.6656   -6.0016    0.0000 H   0  0  0  0  0  0  0  0  0  0  0  0
   -4.4379   -3.0006    0.0000 H   0  0  0  0  0  0  0  0  0  0  0  0
   -4.1572   -3.0595    0.0000 H   0  0  0  0  0  0  0  0  0  0  0  0
   -4.3362   -1.2005    0.0000 H   0  0  0  0  0  0  0  0  0  0  0  0
   -3.7337    0.0000    0.0000 H   0  0  0  0  0  0  0  0  0  0  0  0
   -3.5970   -2.6012    0.0000 H   0  0  0  0  0  0  0  0  0  0  0  0
   -2.6012   -3.5970    0.0000 H   0  0  0  0  0  0  0  0  0  0  0  0
    0.1578   -3.6407    0.0000 H   0  0  0  0  0  0  0  0  0  0  0  0
    1.2135   -1.9423    0.0000 H   0  0  0  0  0  0  0  0  0  0  0  0
    2.5607    0.0000    0.0000 H   0  0  0  0  0  0  0  0  0  0  0  0
   -1.0607    2.1213    0.0000 H   0  0  0  0  0  0  0  0  0  0  0  0
    1.0607    2.1213    0.0000 H   0  0  0  0  0  0  0  0  0  0  0  0
   -1.9423    1.2135    0.0000 H   0  0  0  0  0  0  0  0  0  0  0  0
    3.4472   -4.5911    0.0000 H   0  0  0  0  0  0  0  0  0  0  0  0
    5.2188   -5.8548    0.0000 H   0  0  0  0  0  0  0  0  0  0  0  0
    6.2011  -12.1571    0.0000 H   0  0  0  0  0  0  0  0  0  0  0  0
  1  2  1  0
  2  3  1  0
  3  4  1  0
  4  5  1  0
  5  6  1  0
  5  7  1  0
  7  8  1  0
  8  9  1  0
  9 10  1  0
 10 11  1  0
 11 12  1  0
 12 13  1  0
 13 14  1  0
 14 15  1  0
 15 16  1  0
 11 17  1  0
 17 18  1  0
 18 19  1  0
 19 20  1  0
 20 21  1  0
 21 22  1  0
 22 23  1  0
 23 24  1  0
 24 25  1  0
 25 26  1  0
 26 27  1  0
 27 28  1  0
 28 29  1  0
 27 30  1  0
 30 31  1  0
 31 32  1  0
 32 33  2  0
 31 34  1  0
 34 35  1  0
 35 36  1  0
 36 37  1  0
 37 38  1  0
 38 39  1  0
 39 40  1  0
 40 41  1  0
 41 42  1  0
 25 43  1  0
 18 44  1  0
  7  3  1  0
 44  9  1  0
 14 12  1  0
 44 17  1  0
 22 20  1  0
 25 23  1  0
 38 34  1  0
 42 39  1  0
 43 23  1  0
 42 36  1  0
  1 45  1  0
  1 46  1  0
  1 47  1  0
  2 48  1  0
  2 49  1  0
  3 50  1  0
  4 51  1  0
  4 52  1  0
  5 53  1  0
  6 54  1  0
  6 55  1  0
  7 56  1  0
  8 57  1  0
  8 58  1  0
  9 59  1  0
 10 60  1  0
 10 61  1  0
 11 62  1  0
 12 63  1  0
 13 64  1  0
 13 65  1  0
 14 66  1  0
 15 67  1  0
 15 68  1  0
 16 69  1  0
 16 70  1  0
 16 71  1  0
 17 72  1  0
 18 73  1  0
 19 74  1  0
 20 75  1  0
 21 76  1  0
 21 77  1  0
 22 78  1  0
 24 79  1  0
 24 80  1  0
 26 81  1  0
 27 82  1  0
 28 83  1  0
 28 84  1  0
 29 85  1  0
 29 86  1  0
 30 87  1  0
 31 88  1  0
 32 89  1  0
 35 90  1  0
 35 91  1  0
 36 92  1  0
 37 93  1  0
 37 94  1  0
 38 95  1  0
 39 96  1  0
 40 97  1  0
 41 98  1  0
 41 99  1  0
 42100  1  0
 43101  1  0
 43102  1  0
 44103  1  0
M  END
$$$$
