
     RDKit          2D

 49 51  0  0  0  0  0  0  0  0999 V2000
   -2.0109   -4.2760    0.0000 C   0  0  0  0  0  0  0  0  0  0  0  0
   -2.8559   -3.0367    0.0000 C   0  0  0  0  0  0  0  0  0  0  0  0
   -4.3517   -3.1488    0.0000 C   0  0  0  0  0  0  0  0  0  0  0  0
   -5.8475   -3.2609    0.0000 C   0  0  0  0  0  0  0  0  0  0  0  0
   -6.6925   -2.0215    0.0000 O   0  0  0  0  0  0  0  0  0  0  0  0
   -6.4983   -4.6123    0.0000 O   0  0  0  0  0  0  0  0  0  0  0  0
   -7.9941   -4.7244    0.0000 C   0  0  0  0  0  0  0  0  0  0  0  0
   -2.2050   -1.6852    0.0000 C   0  0  0  0  0  0  0  0  0  0  0  0
   -3.6674   -1.3515    0.0000 C   0  0  0  0  0  0  0  0  0  0  0  0
   -4.3183    0.0000    0.0000 C   0  0  0  0  0  0  0  0  0  0  0  0
   -3.6674    1.3515    0.0000 C   0  0  0  0  0  0  0  0  0  0  0  0
   -2.2050    1.6852    0.0000 C   0  0  0  0  0  0  0  0  0  0  0  0
   -1.0323    0.7500    0.0000 C   0  0  0  0  0  0  0  0  0  0  0  0
    0.3943    1.2135    0.0000 C   0  0  0  0  0  0  0  0  0  0  0  0
   -0.2158    2.5838    0.0000 C   0  0  0  0  0  0  0  0  0  0  0  0
    0.6659    3.7974    0.0000 C   0  0  0  0  0  0  0  0  0  0  0  0
    0.0558    5.1677    0.0000 C   0  0  0  0  0  0  0  0  0  0  0  0
   -1.4360    5.3245    0.0000 C   0  0  0  0  0  0  0  0  0  0  0  0
   -2.3177    4.1110    0.0000 C   0  0  0  0  0  0  0  0  0  0  0  0
   -1.7076    2.7406    0.0000 C   0  0  0  0  0  0  0  0  0  0  0  0
    1.2760    0.0000    0.0000 C   0  0  0  0  0  0  0  0  0  0  0  0
    0.3943   -1.2135    0.0000 C   0  0  0  0  0  0  0  0  0  0  0  0
   -1.0323   -0.7500    0.0000 C   0  0  0  0  0  0  0  0  0  0  0  0
   -2.6617   -5.6275    0.0000 H   0  0  0  0  0  0  0  0  0  0  0  0
   -0.5151   -4.1640    0.0000 H   0  0  0  0  0  0  0  0  0  0  0  0
   -4.5077   -2.3670    0.0000 H   0  0  0  0  0  0  0  0  0  0  0  0
   -4.2396   -4.6446    0.0000 H   0  0  0  0  0  0  0  0  0  0  0  0
   -9.4899   -4.8365    0.0000 H   0  0  0  0  0  0  0  0  0  0  0  0
   -7.8820   -6.2202    0.0000 H   0  0  0  0  0  0  0  0  0  0  0  0
   -8.1062   -3.2286    0.0000 H   0  0  0  0  0  0  0  0  0  0  0  0
   -1.1550   -2.7564    0.0000 H   0  0  0  0  0  0  0  0  0  0  0  0
   -4.4446   -1.5288    0.0000 H   0  0  0  0  0  0  0  0  0  0  0  0
   -4.0304   -2.8069    0.0000 H   0  0  0  0  0  0  0  0  0  0  0  0
   -5.5963    0.7853    0.0000 H   0  0  0  0  0  0  0  0  0  0  0  0
   -5.5963   -0.7853    0.0000 H   0  0  0  0  0  0  0  0  0  0  0  0
   -3.6674    2.8515    0.0000 H   0  0  0  0  0  0  0  0  0  0  0  0
   -5.0782    1.8610    0.0000 H   0  0  0  0  0  0  0  0  0  0  0  0
   -2.2350    3.1849    0.0000 H   0  0  0  0  0  0  0  0  0  0  0  0
    1.6933    1.9635    0.0000 H   0  0  0  0  0  0  0  0  0  0  0  0
    2.1577    3.6406    0.0000 H   0  0  0  0  0  0  0  0  0  0  0  0
    0.9374    6.3812    0.0000 H   0  0  0  0  0  0  0  0  0  0  0  0
   -2.0461    6.6948    0.0000 H   0  0  0  0  0  0  0  0  0  0  0  0
   -3.8095    4.2677    0.0000 H   0  0  0  0  0  0  0  0  0  0  0  0
   -2.8567    1.7765    0.0000 H   0  0  0  0  0  0  0  0  0  0  0  0
    2.3907    1.0037    0.0000 H   0  0  0  0  0  0  0  0  0  0  0  0
    2.3907   -1.0037    0.0000 H   0  0  0  0  0  0  0  0  0  0  0  0
    1.6933   -1.9635    0.0000 H   0  0  0  0  0  0  0  0  0  0  0  0
   -0.0442   -2.6480    0.0000 H   0  0  0  0  0  0  0  0  0  0  0  0
    0.0519    0.2866    0.0000 H   0  0  0  0  0  0  0  0  0  0  0  0
  1  2  2  3
  2  3  1  0
  3  4  1  0
  4  5  2  0
  4  6  1  0
  6  7  1  0
  2  8  1  0
  8  9  1  0
  9 10  1  0
 10 11  1  0
 11 12  1  0
 12 13  2  0
 13 14  1  0
 14 15  1  0
 15 16  2  0
 16 17  1  0
 17 18  2  0
 18 19  1  0
 19 20  2  0
 14 21  1  0
 21 22  1  0
 22 23  1  0
 23  8  1  0
 23 13  1  0
 20 15  1  0
  1 24  1  0
  1 25  1  0
  3 26  1  0
  3 27  1  0
  7 28  1  0
  7 29  1  0
  7 30  1  0
  8 31  1  0
  9 32  1  0
  9 33  1  0
 10 34  1  0
 10 35  1  0
 11 36  1  0
 11 37  1  0
 12 38  1  0
 14 39  1  0
 16 40  1  0
 17 41  1  0
 18 42  1  0
 19 43  1  0
 20 44  1  0
 21 45  1  0
 21 46  1  0
 22 47  1  0
 22 48  1  0
 23 49  1  0
M  END
$$$$
