
     RDKit          3D

  9 10  0  0  0  0  0  0  0  0999 V2000
   18.4123  -20.9777  -16.9932 O   0  0  0  0  0  0  0  0  0  0  0  0
   17.0482  -21.6110  -15.1683 C   0  0  0  0  0  0  0  0  0  0  0  0
   14.9860  -23.9626  -15.1741 C   0  0  0  0  0  0  0  0  0  0  0  0
   18.1550  -20.8292  -15.8095 C   0  0  0  0  0  0  0  0  0  0  0  0
   13.8083  -24.4877  -14.3803 C   0  0  0  0  0  0  0  0  0  0  0  0
   16.3156  -23.9274  -14.4025 C   0  0  0  0  0  0  0  0  0  0  0  0
   17.3782  -23.1098  -15.1479 C   0  0  0  0  0  0  0  0  0  0  0  0
   12.6651  -23.6926  -14.5755 O   0  0  0  0  0  0  0  0  0  0  0  0
   13.8952  -23.0236  -14.7019 C   0  0  0  0  0  0  0  0  0  0  0  0
  4  1  2  0
  4  2  1  0
  5  3  1  0
  6  3  1  0
  7  2  1  0
  7  6  1  0
  8  5  1  0
  9  3  1  0
  9  5  1  0
  9  8  1  0
M  END
$$$$
