
     RDKit          2D

 33 32  0  0  0  0  0  0  0  0999 V2000
    3.8971    4.8481    0.0000 C   0  0  0  0  0  0  0  0  0  0  0  0
    3.1471    3.5490    0.0000 O   0  0  0  0  0  0  0  0  0  0  0  0
    3.8971    2.2500    0.0000 C   0  0  0  0  0  0  0  0  0  0  0  0
    5.1962    3.0000    0.0000 C   0  0  0  0  0  0  0  0  0  0  0  0
    2.5981    1.5000    0.0000 C   0  0  0  0  0  0  0  0  0  0  0  0
    1.2990    0.7500    0.0000 C   0  0  0  0  0  0  0  0  0  0  0  0
    0.0000    0.0000    0.0000 C   0  0  0  0  0  0  0  0  0  0  0  0
   -1.2990    0.7500    0.0000 O   0  0  0  0  0  0  0  0  0  0  0  0
   -0.0000   -1.5000    0.0000 O   0  0  0  0  0  0  0  0  0  0  0  0
   -1.2990   -2.2500    0.0000 O   0  0  0  0  0  0  0  0  0  0  0  0
   -1.2990   -3.7500    0.0000 C   0  0  0  0  0  0  0  0  0  0  0  0
   -1.2990   -5.2500    0.0000 O   0  0  0  0  0  0  0  0  0  0  0  0
   -2.7990   -3.7500    0.0000 P   0  0  0  0  0  0  0  0  0  0  0  0
   -3.5490   -5.0490    0.0000 P   0  0  0  0  0  0  0  0  0  0  0  0
   -5.0490   -5.0490    0.0000 C   0  0  0  0  0  0  0  0  0  0  0  0
   -6.5490   -5.0490    0.0000 O   0  0  0  0  0  1  0  0  0  0  0  0
   -5.0490   -3.5490    0.0000 S   0  0  0  0  0  1  0  0  0  0  0  0
    4.6471    6.1471    0.0000 H   0  0  0  0  0  0  0  0  0  0  0  0
    2.5981    5.5981    0.0000 H   0  0  0  0  0  0  0  0  0  0  0  0
    4.6309    4.5366    0.0000 H   0  0  0  0  0  0  0  0  0  0  0  0
    4.6471    0.9510    0.0000 H   0  0  0  0  0  0  0  0  0  0  0  0
    6.4952    3.7500    0.0000 H   0  0  0  0  0  0  0  0  0  0  0  0
    5.0715    3.7874    0.0000 H   0  0  0  0  0  0  0  0  0  0  0  0
    5.9462    1.7010    0.0000 H   0  0  0  0  0  0  0  0  0  0  0  0
    3.3481    0.2010    0.0000 H   0  0  0  0  0  0  0  0  0  0  0  0
    1.8481    2.7990    0.0000 H   0  0  0  0  0  0  0  0  0  0  0  0
    2.0490   -0.5490    0.0000 H   0  0  0  0  0  0  0  0  0  0  0  0
    0.5490    2.0490    0.0000 H   0  0  0  0  0  0  0  0  0  0  0  0
    0.2010   -3.7500    0.0000 H   0  0  0  0  0  0  0  0  0  0  0  0
   -0.0000   -6.0000    0.0000 H   0  0  0  0  0  0  0  0  0  0  0  0
   -3.5490   -2.4510    0.0000 H   0  0  0  0  0  0  0  0  0  0  0  0
   -2.7990   -6.3481    0.0000 H   0  0  0  0  0  0  0  0  0  0  0  0
   -5.0490   -6.5490    0.0000 H   0  0  0  0  0  0  0  0  0  0  0  0
  1  2  1  0
  2  3  1  0
  3  4  1  0
  3  5  1  0
  5  6  1  0
  6  7  1  0
  7  8  2  0
  7  9  1  0
  9 10  1  0
 10 11  1  0
 11 12  1  0
 11 13  1  0
 13 14  1  0
 14 15  1  0
 15 16  1  0
 15 17  1  0
  1 18  1  0
  1 19  1  0
  1 20  1  0
  3 21  1  0
  4 22  1  0
  4 23  1  0
  4 24  1  0
  5 25  1  0
  5 26  1  0
  6 27  1  0
  6 28  1  0
 11 29  1  1
 12 30  1  0
 13 31  1  0
 14 32  1  0
 15 33  1  1
M  RAD  2  16   2  17   2
M  END
$$$$
