
     RDKit          3D

 16 17  0  0  0  0  0  0  0  0999 V2000
   24.9069  -20.1356   -1.3154 O   0  0  0  0  0  0  0  0  0  0  0  0
   25.5191  -19.3131   -2.2622 C   0  0  0  0  0  0  0  0  0  0  0  0
   24.9165  -18.0520   -2.5853 O   0  0  0  0  0  0  0  0  0  0  0  0
   26.3265  -20.1220   -3.3085 C   0  0  0  0  0  0  0  0  0  0  0  0
   26.0674  -19.5471   -4.7279 C   0  0  0  0  0  0  0  0  0  0  0  0
   27.0118  -19.2111   -2.2630 C   0  0  0  0  0  0  0  0  0  0  0  0
   24.3975  -20.9945   -6.2310 C   0  0  0  0  0  0  0  0  0  0  0  0
   23.2228  -20.0449   -5.9720 C   0  0  0  0  0  0  0  0  0  0  0  0
   21.9577  -20.5485   -6.7791 C   0  0  0  0  0  0  0  0  0  0  0  0
   20.5446  -20.6798   -6.1514 C   0  0  0  0  0  0  0  0  0  0  0  0
   25.8384  -20.5010   -5.9353 C   0  0  0  0  0  0  0  0  0  0  0  0
   19.9458  -21.1826   -4.2399 C   0  0  0  0  0  0  0  0  0  0  0  0
   20.5119  -23.3246   -5.6843 C   0  0  0  0  0  0  0  0  0  0  0  0
   20.3561  -22.0060   -5.4322 C   0  0  0  0  0  0  0  0  0  0  0  0
   20.1565  -19.8472   -4.9544 C   0  0  0  0  0  0  0  0  0  0  0  0
   26.7981  -21.5782   -3.0652 C   0  0  0  0  0  0  0  0  0  0  0  0
  2  1  1  0
  3  2  1  0
  4  2  1  0
  5  4  1  0
  6  2  1  0
  6  4  1  0
  8  7  1  0
  9  8  1  0
 10  9  1  0
 11  5  1  0
 11  7  1  0
 14 10  1  0
 14 12  1  0
 14 13  2  0
 15 10  1  0
 15 12  1  0
 16  4  1  0
M  END
$$$$
