
     RDKit          2D

 57 61  0  0  0  0  0  0  0  0999 V2000
    8.1700   -1.7037    0.0000 C   0  0  0  0  0  0  0  0  0  0  0  0
    7.0209   -2.6679    0.0000 C   0  0  0  0  0  0  0  0  0  0  0  0
    5.8718   -3.6321    0.0000 C   0  0  0  0  0  0  0  0  0  0  0  0
    4.9076   -2.4830    0.0000 C   0  0  0  0  0  0  0  0  0  0  0  0
    3.7586   -3.4472    0.0000 C   0  0  0  0  0  0  0  0  0  0  0  0
    2.7944   -2.2981    0.0000 C   0  0  0  0  0  0  0  0  0  0  0  0
    1.8302   -1.1491    0.0000 C   0  0  0  0  0  0  0  0  0  0  0  0
    0.8660    0.0000    0.0000 C   0  0  0  0  0  0  0  0  0  0  0  0
   -0.4330    0.7500    0.0000 C   0  0  0  0  0  0  0  0  0  0  0  0
   -1.7321    1.5000    0.0000 C   0  0  0  0  0  0  0  0  0  0  0  0
   -3.0311    0.7500    0.0000 C   0  0  0  0  0  0  0  0  0  0  0  0
   -3.0311   -0.7500    0.0000 C   0  0  0  0  0  0  0  0  0  0  0  0
   -4.5083   -0.4895    0.0000 C   0  0  0  0  0  0  0  0  0  0  0  0
   -5.9855   -0.2291    0.0000 C   0  0  0  0  0  0  0  0  0  0  0  0
   -6.4985    1.1805    0.0000 O   0  0  0  0  0  0  0  0  0  0  0  0
   -6.9497   -1.3781    0.0000 O   0  0  0  0  0  0  0  0  0  0  0  0
   -1.7321   -1.5000    0.0000 C   0  0  0  0  0  0  0  0  0  0  0  0
   -0.4330   -0.7500    0.0000 C   0  0  0  0  0  0  0  0  0  0  0  0
    0.3170   -2.0490    0.0000 C   0  0  0  0  0  0  0  0  0  0  0  0
    0.5775   -3.5262    0.0000 C   0  0  0  0  0  0  0  0  0  0  0  0
   -0.5716   -4.4904    0.0000 C   0  0  0  0  0  0  0  0  0  0  0  0
   -1.9811   -5.0035    0.0000 O   0  0  0  0  0  0  0  0  0  0  0  0
   -0.8321   -3.0132    0.0000 C   0  0  0  0  0  0  0  0  0  0  0  0
   -2.2416   -2.5002    0.0000 C   0  0  0  0  0  0  0  0  0  0  0  0
    4.7228   -4.5963    0.0000 C   0  0  0  0  0  0  0  0  0  0  0  0
    7.2058   -0.5547    0.0000 H   0  0  0  0  0  0  0  0  0  0  0  0
    9.1341   -2.8528    0.0000 H   0  0  0  0  0  0  0  0  0  0  0  0
    9.3190   -0.7395    0.0000 H   0  0  0  0  0  0  0  0  0  0  0  0
    6.5385   -1.9251    0.0000 H   0  0  0  0  0  0  0  0  0  0  0  0
    7.9851   -3.8170    0.0000 H   0  0  0  0  0  0  0  0  0  0  0  0
    6.8360   -4.7812    0.0000 H   0  0  0  0  0  0  0  0  0  0  0  0
    5.5117   -1.8352    0.0000 H   0  0  0  0  0  0  0  0  0  0  0  0
    5.5526   -2.9515    0.0000 H   0  0  0  0  0  0  0  0  0  0  0  0
    2.7356   -4.5443    0.0000 H   0  0  0  0  0  0  0  0  0  0  0  0
    1.7714   -3.3952    0.0000 H   0  0  0  0  0  0  0  0  0  0  0  0
    3.9435   -1.3340    0.0000 H   0  0  0  0  0  0  0  0  0  0  0  0
    2.9793   -0.1849    0.0000 H   0  0  0  0  0  0  0  0  0  0  0  0
    0.9486   -2.3626    0.0000 H   0  0  0  0  0  0  0  0  0  0  0  0
    1.8302    1.1491    0.0000 H   0  0  0  0  0  0  0  0  0  0  0  0
    0.3170    2.0490    0.0000 H   0  0  0  0  0  0  0  0  0  0  0  0
   -1.7321    3.0000    0.0000 H   0  0  0  0  0  0  0  0  0  0  0  0
   -4.2290    1.6528    0.0000 H   0  0  0  0  0  0  0  0  0  0  0  0
   -3.7121   -2.0865    0.0000 H   0  0  0  0  0  0  0  0  0  0  0  0
   -4.7688   -1.9667    0.0000 H   0  0  0  0  0  0  0  0  0  0  0  0
   -4.4298    1.0084    0.0000 H   0  0  0  0  0  0  0  0  0  0  0  0
   -8.4269   -1.1176    0.0000 H   0  0  0  0  0  0  0  0  0  0  0  0
   -1.0746   -2.8482    0.0000 H   0  0  0  0  0  0  0  0  0  0  0  0
   -2.9456   -2.3816    0.0000 H   0  0  0  0  0  0  0  0  0  0  0  0
    1.8088   -1.8923    0.0000 H   0  0  0  0  0  0  0  0  0  0  0  0
    1.8210   -4.3651    0.0000 H   0  0  0  0  0  0  0  0  0  0  0  0
    0.1784   -5.7895    0.0000 H   0  0  0  0  0  0  0  0  0  0  0  0
   -2.2416   -6.4807    0.0000 H   0  0  0  0  0  0  0  0  0  0  0  0
   -2.7546   -3.9097    0.0000 H   0  0  0  0  0  0  0  0  0  0  0  0
   -2.0849   -1.0084    0.0000 H   0  0  0  0  0  0  0  0  0  0  0  0
   -3.7032   -2.1628    0.0000 H   0  0  0  0  0  0  0  0  0  0  0  0
    3.5737   -5.5604    0.0000 H   0  0  0  0  0  0  0  0  0  0  0  0
    5.6869   -5.7453    0.0000 H   0  0  0  0  0  0  0  0  0  0  0  0
  1  2  1  0
  2  3  1  0
  3  4  1  0
  4  5  1  0
  5  6  1  0
  6  7  1  0
  7  8  1  0
  8  9  1  0
  9 10  1  0
 10 11  2  0
 11 12  1  0
 12 13  1  0
 13 14  1  0
 14 15  2  0
 14 16  1  0
 12 17  1  0
 18 17  1  1
 18 19  1  0
 19 20  1  0
 20 21  1  0
 21 22  1  0
 21 23  1  0
 23 24  1  1
  5 25  1  0
 25  3  1  0
 18  8  1  0
 23 19  1  0
 18  9  1  0
 23 20  1  0
  1 26  1  0
  1 27  1  0
  1 28  1  0
  2 29  1  0
  2 30  1  0
  3 31  1  1
  4 32  1  0
  4 33  1  0
  5 34  1  6
  6 35  1  0
  6 36  1  0
  7 37  1  0
  7 38  1  0
  8 39  1  1
  9 40  1  6
 10 41  1  0
 11 42  1  0
 12 43  1  6
 13 44  1  0
 13 45  1  0
 16 46  1  0
 17 47  1  0
 17 48  1  0
 19 49  1  1
 20 50  1  1
 21 51  1  6
 22 52  1  0
 24 53  1  0
 24 54  1  0
 24 55  1  0
 25 56  1  0
 25 57  1  0
M  END
$$$$
