
     RDKit          2D

 39 42  0  0  0  0  0  0  0  0999 V2000
   -2.2811   -3.5490    0.0000 C   0  0  0  0  0  0  0  0  0  0  0  0
   -0.9821   -2.7990    0.0000 C   0  0  0  0  0  0  0  0  0  0  0  0
    0.3170   -2.0490    0.0000 C   0  0  0  0  0  0  0  0  0  0  0  0
    1.0670   -3.3481    0.0000 C   0  0  0  0  0  0  0  0  0  0  0  0
    1.6160   -1.2990    0.0000 C   0  0  0  0  0  0  0  0  0  0  0  0
    0.8660    0.0000    0.0000 C   0  0  0  0  0  0  0  0  0  0  0  0
   -0.4330    0.7500    0.0000 C   0  0  0  0  0  0  0  0  0  0  0  0
   -1.9102    1.0105    0.0000 O   0  0  0  0  0  0  0  0  0  0  0  0
   -2.4233    2.4200    0.0000 C   0  0  0  0  0  0  0  0  0  0  0  0
   -2.9363    3.8296    0.0000 C   0  0  0  0  0  0  0  0  0  0  0  0
   -1.6372    4.5796    0.0000 C   0  0  0  0  0  0  0  0  0  0  0  0
   -1.6372    6.0796    0.0000 O   0  0  0  0  0  0  0  0  0  0  0  0
   -0.3382    3.8296    0.0000 O   0  0  0  0  0  0  0  0  0  0  0  0
   -4.4135    3.5691    0.0000 C   0  0  0  0  0  0  0  0  0  0  0  0
   -5.3777    4.7181    0.0000 C   0  0  0  0  0  0  0  0  0  0  0  0
   -6.6767    3.9681    0.0000 C   0  0  0  0  0  0  0  0  0  0  0  0
   -3.9005    4.9786    0.0000 C   0  0  0  0  0  0  0  0  0  0  0  0
   -0.4330   -0.7500    0.0000 P   0  0  0  0  0  0  0  0  0  0  0  0
   -3.5801   -4.2990    0.0000 H   0  0  0  0  0  0  0  0  0  0  0  0
   -3.0311   -2.2500    0.0000 H   0  0  0  0  0  0  0  0  0  0  0  0
   -1.5311   -4.8481    0.0000 H   0  0  0  0  0  0  0  0  0  0  0  0
   -1.7321   -1.5000    0.0000 H   0  0  0  0  0  0  0  0  0  0  0  0
   -0.6360   -3.6144    0.0000 H   0  0  0  0  0  0  0  0  0  0  0  0
    1.8170   -4.6471    0.0000 H   0  0  0  0  0  0  0  0  0  0  0  0
    0.3596   -3.8811    0.0000 H   0  0  0  0  0  0  0  0  0  0  0  0
    1.8823   -3.0020    0.0000 H   0  0  0  0  0  0  0  0  0  0  0  0
    2.1491   -2.0064    0.0000 H   0  0  0  0  0  0  0  0  0  0  0  0
    2.9151   -0.5490    0.0000 H   0  0  0  0  0  0  0  0  0  0  0  0
    1.9267    1.0607    0.0000 H   0  0  0  0  0  0  0  0  0  0  0  0
    0.0800    2.1595    0.0000 H   0  0  0  0  0  0  0  0  0  0  0  0
   -1.0137    2.9330    0.0000 H   0  0  0  0  0  0  0  0  0  0  0  0
   -3.8328    1.9070    0.0000 H   0  0  0  0  0  0  0  0  0  0  0  0
    0.9608    4.5796    0.0000 H   0  0  0  0  0  0  0  0  0  0  0  0
   -4.9265    2.1595    0.0000 H   0  0  0  0  0  0  0  0  0  0  0  0
   -5.8907    6.1277    0.0000 H   0  0  0  0  0  0  0  0  0  0  0  0
   -7.9758    3.2181    0.0000 H   0  0  0  0  0  0  0  0  0  0  0  0
   -7.4267    5.2672    0.0000 H   0  0  0  0  0  0  0  0  0  0  0  0
   -5.9267    2.6691    0.0000 H   0  0  0  0  0  0  0  0  0  0  0  0
   -3.3874    6.3882    0.0000 H   0  0  0  0  0  0  0  0  0  0  0  0
  1  2  1  0
  2  3  1  0
  3  4  1  0
  3  5  1  0
  5  6  1  0
  6  7  1  0
  7  8  1  0
  8  9  1  0
  9 10  1  0
 10 11  1  0
 11 12  2  0
 11 13  1  0
 10 14  1  0
 14 15  1  0
 15 16  1  0
 15 17  1  0
  7 18  1  0
 18  3  1  0
 18  6  1  0
 17 10  1  0
 17 14  1  0
  1 19  1  0
  1 20  1  0
  1 21  1  0
  2 22  1  0
  2 23  1  0
  4 24  1  0
  4 25  1  0
  4 26  1  0
  5 27  1  0
  5 28  1  0
  6 29  1  0
  7 30  1  0
  9 31  1  0
  9 32  1  0
 13 33  1  0
 14 34  1  0
 15 35  1  0
 16 36  1  0
 16 37  1  0
 16 38  1  0
 17 39  1  0
M  END
$$$$
