
     RDKit          2D

 36 40  0  0  0  0  0  0  0  0999 V2000
   -0.0429    1.7131    0.0000 C   0  0  0  0  0  0  0  0  0  0  0  0
   -1.4695    2.1766    0.0000 C   0  0  0  0  0  0  0  0  0  0  0  0
   -2.8961    2.6401    0.0000 C   0  0  0  0  0  0  0  0  0  0  0  0
   -3.3596    1.2135    0.0000 C   0  0  0  0  0  0  0  0  0  0  0  0
   -4.2413    0.0000    0.0000 C   0  0  0  0  0  0  0  0  0  0  0  0
   -3.3596   -1.2135    0.0000 C   0  0  0  0  0  0  0  0  0  0  0  0
   -4.6586   -1.9635    0.0000 C   0  0  0  0  0  0  0  0  0  0  0  0
   -1.9330   -0.7500    0.0000 C   0  0  0  0  0  0  0  0  0  0  0  0
   -0.4330   -0.7500    0.0000 C   0  0  0  0  0  0  0  0  0  0  0  0
   -0.1211   -2.2172    0.0000 C   0  0  0  0  0  0  0  0  0  0  0  0
    1.3706   -2.3740    0.0000 N   0  0  0  0  0  0  0  0  0  0  0  0
    1.9807   -1.0037    0.0000 C   0  0  0  0  0  0  0  0  0  0  0  0
    0.8660    0.0000    0.0000 C   0  0  0  0  0  0  0  0  0  0  0  0
   -0.4330    0.7500    0.0000 C   0  0  0  0  0  0  0  0  0  0  0  0
   -1.9330    0.7500    0.0000 C   0  0  0  0  0  0  0  0  0  0  0  0
    1.4295    1.4269    0.0000 H   0  0  0  0  0  0  0  0  0  0  0  0
   -0.0985    0.9178    0.0000 H   0  0  0  0  0  0  0  0  0  0  0  0
    0.4206    3.1396    0.0000 H   0  0  0  0  0  0  0  0  0  0  0  0
   -1.0060    3.6032    0.0000 H   0  0  0  0  0  0  0  0  0  0  0  0
   -2.4325    4.0667    0.0000 H   0  0  0  0  0  0  0  0  0  0  0  0
   -4.3227    3.1036    0.0000 H   0  0  0  0  0  0  0  0  0  0  0  0
   -4.6961    1.8945    0.0000 H   0  0  0  0  0  0  0  0  0  0  0  0
   -5.3560    1.0037    0.0000 H   0  0  0  0  0  0  0  0  0  0  0  0
   -5.4700   -0.8603    0.0000 H   0  0  0  0  0  0  0  0  0  0  0  0
   -2.7495   -2.5838    0.0000 H   0  0  0  0  0  0  0  0  0  0  0  0
   -5.9577   -2.7135    0.0000 H   0  0  0  0  0  0  0  0  0  0  0  0
   -3.9086   -3.2626    0.0000 H   0  0  0  0  0  0  0  0  0  0  0  0
   -5.5614   -0.7656    0.0000 H   0  0  0  0  0  0  0  0  0  0  0  0
   -1.8807   -2.2491    0.0000 H   0  0  0  0  0  0  0  0  0  0  0  0
   -1.5827   -2.5547    0.0000 H   0  0  0  0  0  0  0  0  0  0  0  0
   -0.1211   -3.7172    0.0000 H   0  0  0  0  0  0  0  0  0  0  0  0
    2.1206   -3.6731    0.0000 H   0  0  0  0  0  0  0  0  0  0  0  0
    3.2798   -1.7537    0.0000 H   0  0  0  0  0  0  0  0  0  0  0  0
    2.8624    0.2098    0.0000 H   0  0  0  0  0  0  0  0  0  0  0  0
    1.8891    1.0970    0.0000 H   0  0  0  0  0  0  0  0  0  0  0  0
    0.2943    2.0619    0.0000 H   0  0  0  0  0  0  0  0  0  0  0  0
  1  2  1  0
  2  3  1  0
  3  4  1  0
  4  5  1  0
  5  6  1  0
  6  7  1  0
  6  8  1  0
  8  9  1  0
  9 10  1  1
 10 11  1  0
 11 12  1  0
 12 13  1  0
 13 14  1  0
 14 15  1  0
 15  2  1  6
 15  4  1  0
 15  8  1  0
 13  9  1  0
 14  9  1  0
  1 16  1  0
  1 17  1  0
  1 18  1  0
  2 19  1  1
  3 20  1  0
  3 21  1  0
  4 22  1  1
  5 23  1  0
  5 24  1  0
  6 25  1  1
  7 26  1  0
  7 27  1  0
  7 28  1  0
  8 29  1  6
 10 30  1  0
 10 31  1  0
 11 32  1  0
 12 33  1  0
 12 34  1  0
 13 35  1  1
 14 36  1  6
M  END
$$$$
