
     RDKit          2D

 23 24  0  0  0  0  0  0  0  0999 V2000
    1.8302    1.1491    0.0000 O   0  0  0  0  0  0  0  0  0  0  0  0
    0.8660    0.0000    0.0000 C   0  0  0  0  0  0  0  0  0  0  0  0
    1.8302   -1.1491    0.0000 O   0  0  0  0  0  0  0  0  0  0  0  0
   -0.4330    0.7500    0.0000 C   0  0  0  0  0  0  0  0  0  0  0  0
   -0.4330   -0.7500    0.0000 C   0  0  0  0  0  0  0  0  0  0  0  0
    0.0800   -2.1595    0.0000 C   0  0  0  0  0  0  0  0  0  0  0  0
    0.5930   -3.5691    0.0000 N   0  0  0  0  0  0  0  0  0  0  0  0
   -0.3711   -4.7181    0.0000 C   0  0  0  0  0  0  0  0  0  0  0  0
   -0.8842   -6.1277    0.0000 C   0  0  0  0  0  0  0  0  0  0  0  0
    0.5930   -5.8672    0.0000 C   0  0  0  0  0  0  0  0  0  0  0  0
    3.3074    0.8886    0.0000 H   0  0  0  0  0  0  0  0  0  0  0  0
    1.5576   -1.8982    0.0000 H   0  0  0  0  0  0  0  0  0  0  0  0
   -1.9102    1.0105    0.0000 H   0  0  0  0  0  0  0  0  0  0  0  0
    0.0800    2.1595    0.0000 H   0  0  0  0  0  0  0  0  0  0  0  0
   -1.9102   -1.0105    0.0000 H   0  0  0  0  0  0  0  0  0  0  0  0
   -1.3295   -2.6726    0.0000 H   0  0  0  0  0  0  0  0  0  0  0  0
    0.8728   -2.0763    0.0000 H   0  0  0  0  0  0  0  0  0  0  0  0
    2.0703   -3.8296    0.0000 H   0  0  0  0  0  0  0  0  0  0  0  0
   -1.6702   -3.9681    0.0000 H   0  0  0  0  0  0  0  0  0  0  0  0
   -2.3614   -5.8672    0.0000 H   0  0  0  0  0  0  0  0  0  0  0  0
   -0.8842   -7.6277    0.0000 H   0  0  0  0  0  0  0  0  0  0  0  0
    1.1061   -7.2768    0.0000 H   0  0  0  0  0  0  0  0  0  0  0  0
    1.8921   -5.1172    0.0000 H   0  0  0  0  0  0  0  0  0  0  0  0
  1  2  1  0
  2  3  1  0
  2  4  1  0
  4  5  1  0
  5  6  1  0
  6  7  1  0
  7  8  1  0
  8  9  1  0
  9 10  1  0
  5  2  1  0
 10  8  1  0
  1 11  1  0
  3 12  1  0
  4 13  1  0
  4 14  1  0
  5 15  1  0
  6 16  1  0
  6 17  1  0
  7 18  1  0
  8 19  1  0
  9 20  1  0
  9 21  1  0
 10 22  1  0
 10 23  1  0
M  END
$$$$
