
     RDKit          2D

 40 40  0  0  0  0  0  0  0  0999 V2000
    5.8107   -2.1910    0.0000 C   0  0  0  0  0  0  0  0  0  0  0  0
    5.2977   -0.7814    0.0000 C   0  0  0  0  0  0  0  0  0  0  0  0
    4.7846    0.6281    0.0000 C   0  0  0  0  0  0  0  0  0  0  0  0
    3.3074    0.8886    0.0000 C   0  0  0  0  0  0  0  0  0  0  0  0
    1.8302    1.1491    0.0000 C   0  0  0  0  0  0  0  0  0  0  0  0
    0.8660    0.0000    0.0000 C   0  0  0  0  0  0  0  0  0  0  0  0
   -0.4330    0.7500    0.0000 C   0  0  0  0  0  0  0  0  0  0  0  0
   -0.4330   -0.7500    0.0000 C   0  0  0  0  0  0  0  0  0  0  0  0
    0.0800   -2.1595    0.0000 F   0  0  0  0  0  0  0  0  0  0  0  0
   -1.9102   -1.0105    0.0000 F   0  0  0  0  0  0  0  0  0  0  0  0
    5.7488    1.7772    0.0000 C   0  0  0  0  0  0  0  0  0  0  0  0
    6.7130    2.9263    0.0000 C   0  0  0  0  0  0  0  0  0  0  0  0
    7.6772    4.0753    0.0000 C   0  0  0  0  0  0  0  0  0  0  0  0
    8.6414    5.2244    0.0000 C   0  0  0  0  0  0  0  0  0  0  0  0
    7.4923    6.1886    0.0000 C   0  0  0  0  0  0  0  0  0  0  0  0
    9.6055    6.3735    0.0000 C   0  0  0  0  0  0  0  0  0  0  0  0
    9.0925    7.7830    0.0000 C   0  0  0  0  0  0  0  0  0  0  0  0
   11.0827    6.1130    0.0000 S   0  0  0  0  0  0  0  0  0  0  0  0
    6.3237   -3.6005    0.0000 H   0  0  0  0  0  0  0  0  0  0  0  0
    4.4012   -2.7040    0.0000 H   0  0  0  0  0  0  0  0  0  0  0  0
    7.2202   -1.6779    0.0000 H   0  0  0  0  0  0  0  0  0  0  0  0
    6.7072   -0.2684    0.0000 H   0  0  0  0  0  0  0  0  0  0  0  0
    3.8881   -1.2944    0.0000 H   0  0  0  0  0  0  0  0  0  0  0  0
    1.3172    2.5586    0.0000 H   0  0  0  0  0  0  0  0  0  0  0  0
    1.8302   -1.1491    0.0000 H   0  0  0  0  0  0  0  0  0  0  0  0
   -1.9102    1.0105    0.0000 H   0  0  0  0  0  0  0  0  0  0  0  0
    0.0800    2.1595    0.0000 H   0  0  0  0  0  0  0  0  0  0  0  0
    6.8979    0.8130    0.0000 H   0  0  0  0  0  0  0  0  0  0  0  0
    4.5997    2.7414    0.0000 H   0  0  0  0  0  0  0  0  0  0  0  0
    5.5639    3.8904    0.0000 H   0  0  0  0  0  0  0  0  0  0  0  0
    7.8621    1.9621    0.0000 H   0  0  0  0  0  0  0  0  0  0  0  0
    8.8262    3.1111    0.0000 H   0  0  0  0  0  0  0  0  0  0  0  0
    6.9343    4.5577    0.0000 H   0  0  0  0  0  0  0  0  0  0  0  0
    9.7904    4.2602    0.0000 H   0  0  0  0  0  0  0  0  0  0  0  0
    6.3432    7.1528    0.0000 H   0  0  0  0  0  0  0  0  0  0  0  0
    6.8445    5.5845    0.0000 H   0  0  0  0  0  0  0  0  0  0  0  0
    7.7518    6.9423    0.0000 H   0  0  0  0  0  0  0  0  0  0  0  0
    8.5795    9.1925    0.0000 H   0  0  0  0  0  0  0  0  0  0  0  0
   10.5020    8.2960    0.0000 H   0  0  0  0  0  0  0  0  0  0  0  0
    8.3158    7.6037    0.0000 H   0  0  0  0  0  0  0  0  0  0  0  0
  1  2  1  0
  2  3  1  0
  3  4  2  0
  4  5  2  0
  5  6  1  0
  6  7  1  0
  7  8  1  0
  8  9  1  0
  8 10  1  0
  3 11  1  0
 11 12  1  0
 12 13  1  0
 13 14  1  0
 14 15  1  0
 14 16  1  0
 16 17  1  0
 16 18  2  0
  8  6  1  0
  1 19  1  0
  1 20  1  0
  1 21  1  0
  2 22  1  0
  2 23  1  0
  5 24  1  0
  6 25  1  0
  7 26  1  0
  7 27  1  0
 11 28  1  0
 11 29  1  0
 12 30  1  0
 12 31  1  0
 13 32  1  0
 13 33  1  0
 14 34  1  0
 15 35  1  0
 15 36  1  0
 15 37  1  0
 17 38  1  0
 17 39  1  0
 17 40  1  0
M  END
$$$$
