
     RDKit          2D

 29 32  0  0  0  0  0  0  0  0999 V2000
   -6.6767   -3.6910    0.0000 C   0  0  0  0  0  0  0  0  0  0  0  0
   -6.1637   -2.2814    0.0000 C   0  0  0  0  0  0  0  0  0  0  0  0
   -4.6865   -2.0209    0.0000 C   0  0  0  0  0  0  0  0  0  0  0  0
   -3.2093   -1.7605    0.0000 C   0  0  0  0  0  0  0  0  0  0  0  0
   -1.7321   -1.5000    0.0000 C   0  0  0  0  0  0  0  0  0  0  0  0
   -1.7321    0.0000    0.0000 C   0  0  0  0  0  0  0  0  0  0  0  0
   -0.4330    0.7500    0.0000 C   0  0  0  0  0  0  0  0  0  0  0  0
    0.8660    0.0000    0.0000 C   0  0  0  0  0  0  0  0  0  0  0  0
   -0.4330   -0.7500    0.0000 C   0  0  0  0  0  0  0  0  0  0  0  0
   -7.1279   -1.1324    0.0000 C   0  0  0  0  0  0  0  0  0  0  0  0
   -8.4269   -0.3824    0.0000 C   0  0  0  0  0  0  0  0  0  0  0  0
   -8.4269   -1.8824    0.0000 C   0  0  0  0  0  0  0  0  0  0  0  0
   -9.9041   -2.1428    0.0000 O   0  0  0  0  0  0  0  0  0  0  0  0
   -5.7125   -4.8400    0.0000 H   0  0  0  0  0  0  0  0  0  0  0  0
   -7.8386   -4.0462    0.0000 H   0  0  0  0  0  0  0  0  0  0  0  0
   -4.4260   -3.4982    0.0000 H   0  0  0  0  0  0  0  0  0  0  0  0
   -4.9469   -0.5437    0.0000 H   0  0  0  0  0  0  0  0  0  0  0  0
   -3.4697   -0.2833    0.0000 H   0  0  0  0  0  0  0  0  0  0  0  0
   -2.9488   -3.2377    0.0000 H   0  0  0  0  0  0  0  0  0  0  0  0
   -1.2190   -2.9095    0.0000 H   0  0  0  0  0  0  0  0  0  0  0  0
   -3.0311    0.7500    0.0000 H   0  0  0  0  0  0  0  0  0  0  0  0
   -0.4330    2.2500    0.0000 H   0  0  0  0  0  0  0  0  0  0  0  0
    1.8302    1.1491    0.0000 H   0  0  0  0  0  0  0  0  0  0  0  0
    1.8302   -1.1491    0.0000 H   0  0  0  0  0  0  0  0  0  0  0  0
   -6.1637    0.0167    0.0000 H   0  0  0  0  0  0  0  0  0  0  0  0
   -7.9139    1.0272    0.0000 H   0  0  0  0  0  0  0  0  0  0  0  0
   -9.9041   -0.1219    0.0000 H   0  0  0  0  0  0  0  0  0  0  0  0
   -8.1536   -3.0662    0.0000 H   0  0  0  0  0  0  0  0  0  0  0  0
  -10.4171   -3.5524    0.0000 H   0  0  0  0  0  0  0  0  0  0  0  0
  1  2  2  3
  2  3  1  0
  3  4  1  0
  4  5  1  0
  5  6  1  0
  6  7  1  0
  7  8  1  0
  8  9  1  0
  2 10  1  0
 10 11  1  0
 11 12  1  0
 12 13  1  0
  9  5  1  0
 12 10  1  0
  9  6  1  0
  9  7  1  0
  1 14  1  0
  1 15  1  0
  3 16  1  0
  3 17  1  0
  4 18  1  0
  4 19  1  0
  5 20  1  0
  6 21  1  0
  7 22  1  0
  8 23  1  0
  8 24  1  0
 10 25  1  0
 11 26  1  0
 11 27  1  0
 12 28  1  0
 13 29  1  0
M  END
$$$$
