
     RDKit          2D

 65 68  0  0  0  0  0  0  0  0999 V2000
    5.1595   -2.2140    0.0000 C   0  0  0  0  0  0  0  0  0  0  0  0
    4.4095   -3.5130    0.0000 C   0  0  0  0  0  0  0  0  0  0  0  0
    3.6595   -4.8121    0.0000 C   0  0  0  0  0  0  0  0  0  0  0  0
    2.2500   -4.2990    0.0000 C   0  0  0  0  0  0  0  0  0  0  0  0
    0.7500   -4.2990    0.0000 C   0  0  0  0  0  0  0  0  0  0  0  0
   -0.7500   -4.2990    0.0000 C   0  0  0  0  0  0  0  0  0  0  0  0
   -2.2500   -4.2990    0.0000 C   0  0  0  0  0  0  0  0  0  0  0  0
   -0.7500   -2.7990    0.0000 C   0  0  0  0  0  0  0  0  0  0  0  0
   -2.2500   -2.7990    0.0000 C   0  0  0  0  0  0  0  0  0  0  0  0
   -3.3107   -3.8597    0.0000 N   0  0  0  0  0  0  0  0  0  0  0  0
   -2.2500   -1.2990    0.0000 C   0  0  0  0  0  0  0  0  0  0  0  0
   -3.0000    0.0000    0.0000 C   0  0  0  0  0  0  0  0  0  0  0  0
   -2.2500    1.2990    0.0000 N   0  0  0  0  0  2  0  0  0  0  0  0
   -0.7500    1.2990    0.0000 C   0  0  0  0  0  0  0  0  0  0  0  0
    0.6595    1.8121    0.0000 C   0  0  0  0  0  0  0  0  0  0  0  0
    0.1465    3.2216    0.0000 Cl  0  0  0  0  0  0  0  0  0  0  0  0
    2.0691    2.3251    0.0000 C   0  0  0  0  0  0  0  0  0  0  0  0
    3.4786    2.8381    0.0000 C   0  0  0  0  0  0  0  0  0  0  0  0
    2.5821    0.9156    0.0000 C   0  0  0  0  0  0  0  0  0  0  0  0
    3.0951   -0.4940    0.0000 F   0  0  0  0  0  0  0  0  0  0  0  0
    0.0000   -0.0000    0.0000 N   0  0  0  0  0  2  0  0  0  0  0  0
   -0.7500   -1.2990    0.0000 C   0  0  0  0  0  0  0  0  0  0  0  0
    2.5105   -5.7762    0.0000 C   0  0  0  0  0  0  0  0  0  0  0  0
    3.2605   -7.0753    0.0000 C   0  0  0  0  0  0  0  0  0  0  0  0
    4.2642   -8.1900    0.0000 C   0  0  0  0  0  0  0  0  0  0  0  0
    3.5142   -9.4890    0.0000 C   0  0  0  0  0  0  0  0  0  0  0  0
    2.0469   -9.1772    0.0000 C   0  0  0  0  0  0  0  0  0  0  0  0
    1.8902   -7.6854    0.0000 C   0  0  0  0  0  0  0  0  0  0  0  0
    0.5911   -6.9354    0.0000 N   0  0  0  0  0  0  0  0  0  0  0  0
    5.9095   -0.9150    0.0000 H   0  0  0  0  0  0  0  0  0  0  0  0
    6.4586   -2.9640    0.0000 H   0  0  0  0  0  0  0  0  0  0  0  0
    3.8605   -1.4640    0.0000 H   0  0  0  0  0  0  0  0  0  0  0  0
    3.3314   -2.7006    0.0000 H   0  0  0  0  0  0  0  0  0  0  0  0
    5.7086   -4.2630    0.0000 H   0  0  0  0  0  0  0  0  0  0  0  0
    4.9176   -5.6290    0.0000 H   0  0  0  0  0  0  0  0  0  0  0  0
    2.3206   -2.9509    0.0000 H   0  0  0  0  0  0  0  0  0  0  0  0
    0.9328   -2.8102    0.0000 H   0  0  0  0  0  0  0  0  0  0  0  0
    0.5672   -5.7879    0.0000 H   0  0  0  0  0  0  0  0  0  0  0  0
   -0.7500   -5.7990    0.0000 H   0  0  0  0  0  0  0  0  0  0  0  0
   -3.0235   -4.4919    0.0000 H   0  0  0  0  0  0  0  0  0  0  0  0
   -2.0672   -5.7879    0.0000 H   0  0  0  0  0  0  0  0  0  0  0  0
   -2.6130   -2.8436    0.0000 H   0  0  0  0  0  0  0  0  0  0  0  0
    0.7388   -2.6162    0.0000 H   0  0  0  0  0  0  0  0  0  0  0  0
   -3.1019   -5.3451    0.0000 H   0  0  0  0  0  0  0  0  0  0  0  0
   -3.6408   -1.8610    0.0000 H   0  0  0  0  0  0  0  0  0  0  0  0
   -4.1491    0.9642    0.0000 H   0  0  0  0  0  0  0  0  0  0  0  0
   -4.2580   -0.8169    0.0000 H   0  0  0  0  0  0  0  0  0  0  0  0
   -1.0105    2.7762    0.0000 H   0  0  0  0  0  0  0  0  0  0  0  0
    0.9969    0.3505    0.0000 H   0  0  0  0  0  0  0  0  0  0  0  0
    1.5560    3.7346    0.0000 H   0  0  0  0  0  0  0  0  0  0  0  0
    4.8882    3.3512    0.0000 H   0  0  0  0  0  0  0  0  0  0  0  0
    2.9656    4.2477    0.0000 H   0  0  0  0  0  0  0  0  0  0  0  0
    4.1596    1.5016    0.0000 H   0  0  0  0  0  0  0  0  0  0  0  0
    4.0437    1.2529    0.0000 H   0  0  0  0  0  0  0  0  0  0  0  0
    1.2456    0.2345    0.0000 H   0  0  0  0  0  0  0  0  0  0  0  0
    0.6989   -1.6873    0.0000 H   0  0  0  0  0  0  0  0  0  0  0  0
    1.0489   -6.1136    0.0000 H   0  0  0  0  0  0  0  0  0  0  0  0
    4.5724   -6.3481    0.0000 H   0  0  0  0  0  0  0  0  0  0  0  0
    5.2679   -7.0753    0.0000 H   0  0  0  0  0  0  0  0  0  0  0  0
    5.4777   -9.0717    0.0000 H   0  0  0  0  0  0  0  0  0  0  0  0
    4.8845  -10.0991    0.0000 H   0  0  0  0  0  0  0  0  0  0  0  0
    3.0506  -10.9156    0.0000 H   0  0  0  0  0  0  0  0  0  0  0  0
    1.8902  -10.6690    0.0000 H   0  0  0  0  0  0  0  0  0  0  0  0
    0.5469   -9.1772    0.0000 H   0  0  0  0  0  0  0  0  0  0  0  0
   -0.7079   -7.6854    0.0000 H   0  0  0  0  0  0  0  0  0  0  0  0
  1  2  1  0
  2  3  1  0
  3  4  1  0
  4  5  1  0
  5  6  1  0
  6  7  1  0
  6  8  1  0
  8  9  1  0
  9 10  2  3
  9 11  1  0
 11 12  1  0
 12 13  1  0
 13 14  1  0
 14 15  1  0
 15 16  1  0
 15 17  1  0
 17 18  1  0
 17 19  1  0
 19 20  1  0
 14 21  1  0
 21 22  1  0
  4 23  1  0
 23 24  1  0
 24 25  1  0
 25 26  1  0
 26 27  1  0
 27 28  1  0
 28 29  2  3
 23  3  1  0
 28 24  1  0
 22  8  1  0
 22 11  1  0
  1 30  1  0
  1 31  1  0
  1 32  1  0
  2 33  1  0
  2 34  1  0
  3 35  1  0
  4 36  1  0
  5 37  1  0
  5 38  1  0
  6 39  1  0
  7 40  1  0
  7 41  1  0
  7 42  1  0
  8 43  1  0
 10 44  1  0
 11 45  1  0
 12 46  1  0
 12 47  1  0
 14 48  1  0
 15 49  1  0
 17 50  1  0
 18 51  1  0
 18 52  1  0
 18 53  1  0
 19 54  1  0
 19 55  1  0
 22 56  1  0
 23 57  1  0
 24 58  1  0
 25 59  1  0
 25 60  1  0
 26 61  1  0
 26 62  1  0
 27 63  1  0
 27 64  1  0
 29 65  1  0
M  RAD  2  13   2  21   2
M  END
$$$$
