
     RDKit          2D

 72 76  0  0  0  0  0  0  0  0999 V2000
   -3.6721    5.6515    0.0000 C   0  0  0  0  0  0  0  0  0  0  0  0
   -3.2300    4.2182    0.0000 C   0  0  0  0  0  0  0  0  0  0  0  0
   -2.7878    2.7848    0.0000 C   0  0  0  0  0  0  0  0  0  0  0  0
   -4.2836    2.6727    0.0000 C   0  0  0  0  0  0  0  0  0  0  0  0
   -5.1286    1.4334    0.0000 C   0  0  0  0  0  0  0  0  0  0  0  0
   -4.6865    0.0000    0.0000 C   0  0  0  0  0  0  0  0  0  0  0  0
   -3.6372    0.9596    0.0000 C   0  0  0  0  0  0  0  0  0  0  0  0
   -2.7529    1.4702    0.0000 C   0  0  0  0  0  0  0  0  0  0  0  0
   -1.3972    1.8991    0.0000 C   0  0  0  0  0  0  0  0  0  0  0  0
   -0.4330    0.7500    0.0000 C   0  0  0  0  0  0  0  0  0  0  0  0
    0.8660    0.0000    0.0000 C   0  0  0  0  0  0  0  0  0  0  0  0
   -0.4330   -0.7500    0.0000 C   0  0  0  0  0  0  0  0  0  0  0  0
   -1.3972   -1.8991    0.0000 C   0  0  0  0  0  0  0  0  0  0  0  0
   -2.8744   -2.1595    0.0000 C   0  0  0  0  0  0  0  0  0  0  0  0
   -4.1734   -1.4095    0.0000 C   0  0  0  0  0  0  0  0  0  0  0  0
   -4.5194   -2.8691    0.0000 C   0  0  0  0  0  0  0  0  0  0  0  0
   -4.8653   -4.3287    0.0000 C   0  0  0  0  0  0  0  0  0  0  0  0
   -6.3628   -4.2415    0.0000 C   0  0  0  0  0  0  0  0  0  0  0  0
   -7.6953   -3.5527    0.0000 C   0  0  0  0  0  0  0  0  0  0  0  0
   -9.1782   -3.7787    0.0000 C   0  0  0  0  0  0  0  0  0  0  0  0
  -10.2450   -4.8332    0.0000 C   0  0  0  0  0  0  0  0  0  0  0  0
  -10.4882   -6.3133    0.0000 C   0  0  0  0  0  0  0  0  0  0  0  0
   -9.8150   -7.6538    0.0000 C   0  0  0  0  0  0  0  0  0  0  0  0
   -8.4825   -8.3425    0.0000 C   0  0  0  0  0  0  0  0  0  0  0  0
   -6.9996   -8.1165    0.0000 C   0  0  0  0  0  0  0  0  0  0  0  0
   -5.9328   -7.0620    0.0000 C   0  0  0  0  0  0  0  0  0  0  0  0
   -5.6896   -5.5819    0.0000 C   0  0  0  0  0  0  0  0  0  0  0  0
   -4.2923   -6.1276    0.0000 O   0  0  0  0  0  0  0  0  0  0  0  0
   -4.1142    7.0849    0.0000 H   0  0  0  0  0  0  0  0  0  0  0  0
   -2.2387    6.0937    0.0000 H   0  0  0  0  0  0  0  0  0  0  0  0
   -5.1054    5.2094    0.0000 H   0  0  0  0  0  0  0  0  0  0  0  0
   -4.0147    4.0778    0.0000 H   0  0  0  0  0  0  0  0  0  0  0  0
   -2.0689    4.5763    0.0000 H   0  0  0  0  0  0  0  0  0  0  0  0
   -1.9139    3.6289    0.0000 H   0  0  0  0  0  0  0  0  0  0  0  0
   -5.6027    3.3868    0.0000 H   0  0  0  0  0  0  0  0  0  0  0  0
   -4.2618    3.4696    0.0000 H   0  0  0  0  0  0  0  0  0  0  0  0
   -6.5094    0.8473    0.0000 H   0  0  0  0  0  0  0  0  0  0  0  0
   -6.2753    2.4004    0.0000 H   0  0  0  0  0  0  0  0  0  0  0  0
   -6.1753   -0.1828    0.0000 H   0  0  0  0  0  0  0  0  0  0  0  0
   -5.6053    1.8565    0.0000 H   0  0  0  0  0  0  0  0  0  0  0  0
   -4.3389    2.9004    0.0000 H   0  0  0  0  0  0  0  0  0  0  0  0
   -4.0828    3.0482    0.0000 H   0  0  0  0  0  0  0  0  0  0  0  0
   -2.0428    3.4079    0.0000 H   0  0  0  0  0  0  0  0  0  0  0  0
   -0.4944    3.0970    0.0000 H   0  0  0  0  0  0  0  0  0  0  0  0
    0.5312    1.8991    0.0000 H   0  0  0  0  0  0  0  0  0  0  0  0
    1.8302    1.1491    0.0000 H   0  0  0  0  0  0  0  0  0  0  0  0
    1.8302   -1.1491    0.0000 H   0  0  0  0  0  0  0  0  0  0  0  0
    0.6640   -1.7730    0.0000 H   0  0  0  0  0  0  0  0  0  0  0  0
   -0.1026   -2.6566    0.0000 H   0  0  0  0  0  0  0  0  0  0  0  0
   -1.3884   -3.3990    0.0000 H   0  0  0  0  0  0  0  0  0  0  0  0
   -2.2012   -3.5000    0.0000 H   0  0  0  0  0  0  0  0  0  0  0  0
   -3.5240   -3.5116    0.0000 H   0  0  0  0  0  0  0  0  0  0  0  0
   -5.6709   -1.4968    0.0000 H   0  0  0  0  0  0  0  0  0  0  0  0
   -5.9259   -2.3478    0.0000 H   0  0  0  0  0  0  0  0  0  0  0  0
   -3.1869   -3.5579    0.0000 H   0  0  0  0  0  0  0  0  0  0  0  0
   -3.4880   -4.9228    0.0000 H   0  0  0  0  0  0  0  0  0  0  0  0
   -7.3135   -5.4017    0.0000 H   0  0  0  0  0  0  0  0  0  0  0  0
   -8.2001   -2.1402    0.0000 H   0  0  0  0  0  0  0  0  0  0  0  0
   -6.7650   -2.3761    0.0000 H   0  0  0  0  0  0  0  0  0  0  0  0
  -10.5107   -3.0900    0.0000 H   0  0  0  0  0  0  0  0  0  0  0  0
   -9.1171   -2.2800    0.0000 H   0  0  0  0  0  0  0  0  0  0  0  0
  -11.5775   -4.1445    0.0000 H   0  0  0  0  0  0  0  0  0  0  0  0
  -11.9711   -6.5394    0.0000 H   0  0  0  0  0  0  0  0  0  0  0  0
  -10.2369   -9.0932    0.0000 H   0  0  0  0  0  0  0  0  0  0  0  0
  -11.2979   -7.8798    0.0000 H   0  0  0  0  0  0  0  0  0  0  0  0
   -7.9777   -9.7551    0.0000 H   0  0  0  0  0  0  0  0  0  0  0  0
   -9.4128   -9.5192    0.0000 H   0  0  0  0  0  0  0  0  0  0  0  0
   -5.7610   -8.9626    0.0000 H   0  0  0  0  0  0  0  0  0  0  0  0
   -7.0607   -9.6153    0.0000 H   0  0  0  0  0  0  0  0  0  0  0  0
   -4.4675   -7.3826    0.0000 H   0  0  0  0  0  0  0  0  0  0  0  0
   -5.1012   -8.3104    0.0000 H   0  0  0  0  0  0  0  0  0  0  0  0
   -3.8872   -7.5719    0.0000 H   0  0  0  0  0  0  0  0  0  0  0  0
  1  2  1  0
  2  3  1  0
  3  4  1  0
  4  5  1  0
  5  6  1  0
  6  7  1  0
  7  8  1  0
  8  9  1  0
  9 10  1  0
 10 11  1  0
 11 12  1  0
 12 13  1  0
 13 14  1  0
 14 15  1  0
 15 16  1  0
 16 17  1  0
 17 18  1  0
 18 19  1  0
 19 20  1  0
 20 21  1  0
 21 22  2  0
 22 23  1  0
 23 24  1  0
 24 25  1  0
 25 26  1  0
 26 27  1  0
 27 28  1  1
  9  3  1  0
 12 10  1  0
 27 17  1  0
 15  6  1  0
 27 18  1  0
  1 29  1  0
  1 30  1  0
  1 31  1  0
  2 32  1  0
  2 33  1  0
  3 34  1  1
  4 35  1  0
  4 36  1  0
  5 37  1  0
  5 38  1  0
  6 39  1  6
  7 40  1  0
  7 41  1  0
  8 42  1  0
  8 43  1  0
  9 44  1  6
 10 45  1  1
 11 46  1  0
 11 47  1  0
 12 48  1  6
 13 49  1  0
 13 50  1  0
 14 51  1  0
 14 52  1  0
 15 53  1  6
 16 54  1  0
 16 55  1  0
 17 56  1  1
 18 57  1  6
 19 58  1  0
 19 59  1  0
 20 60  1  0
 20 61  1  0
 21 62  1  0
 22 63  1  0
 23 64  1  0
 23 65  1  0
 24 66  1  0
 24 67  1  0
 25 68  1  0
 25 69  1  0
 26 70  1  0
 26 71  1  0
 28 72  1  0
M  END
$$$$
