
     RDKit          2D

101113  0  0  0  0  0  0  0  0999 V2000
   -3.2360   -2.2383    0.0000 C   0  0  0  0  0  0  0  0  0  0  0  0
   -2.9183   -0.7723    0.0000 C   0  0  0  0  0  0  0  0  0  0  0  0
   -4.0290    0.2358    0.0000 C   0  0  0  0  0  0  0  0  0  0  0  0
   -4.8289   -1.0331    0.0000 C   0  0  0  0  0  0  0  0  0  0  0  0
   -5.6288   -2.3020    0.0000 C   0  0  0  0  0  0  0  0  0  0  0  0
   -7.0174   -1.7346    0.0000 C   0  0  0  0  0  0  0  0  0  0  0  0
   -8.2030   -2.6534    0.0000 C   0  0  0  0  0  0  0  0  0  0  0  0
   -6.8145   -3.2208    0.0000 C   0  0  0  0  0  0  0  0  0  0  0  0
   -3.7113    1.7018    0.0000 C   0  0  0  0  0  0  0  0  0  0  0  0
   -2.2829    2.1596    0.0000 C   0  0  0  0  0  0  0  0  0  0  0  0
   -1.1722    1.1515    0.0000 C   0  0  0  0  0  0  0  0  0  0  0  0
   -0.3722    2.4204    0.0000 C   0  0  0  0  0  0  0  0  0  0  0  0
    0.4277    3.6893    0.0000 N   0  0  0  0  0  0  0  0  0  0  0  0
    1.9266    3.6310    0.0000 C   0  0  0  0  0  0  0  0  0  0  0  0
    3.4254    3.5727    0.0000 C   0  0  0  0  0  0  0  0  0  0  0  0
   -0.2712    5.0165    0.0000 C   0  0  0  0  0  0  0  0  0  0  0  0
   -0.9702    6.3437    0.0000 C   0  0  0  0  0  0  0  0  0  0  0  0
    0.3570    7.0427    0.0000 C   0  0  0  0  0  0  0  0  0  0  0  0
   -0.3419    8.3699    0.0000 C   0  0  0  0  0  0  0  0  0  0  0  0
   -1.6691    7.6709    0.0000 C   0  0  0  0  0  0  0  0  0  0  0  0
   -2.3681    8.9981    0.0000 I   0  0  0  0  0  0  0  0  0  0  0  0
   -2.9963    6.9720    0.0000 C   0  0  0  0  0  0  0  0  0  0  0  0
   -4.3235    6.2731    0.0000 C   0  0  0  0  0  0  0  0  0  0  0  0
   -1.4899   -0.3145    0.0000 C   0  0  0  0  0  0  0  0  0  0  0  0
   -0.4330    0.7500    0.0000 C   0  0  0  0  0  0  0  0  0  0  0  0
    0.8660    0.0000    0.0000 C   0  0  0  0  0  0  0  0  0  0  0  0
    1.6160   -1.2990    0.0000 C   0  0  0  0  0  0  0  0  0  0  0  0
    2.3660   -2.5981    0.0000 C   0  0  0  0  0  0  0  0  0  0  0  0
    0.3170   -2.0490    0.0000 C   0  0  0  0  0  0  0  0  0  0  0  0
   -0.9821   -2.7990    0.0000 C   0  0  0  0  0  0  0  0  0  0  0  0
   -1.7321   -1.5000    0.0000 C   0  0  0  0  0  0  0  0  0  0  0  0
   -3.0311   -2.2500    0.0000 C   0  0  0  0  0  0  0  0  0  0  0  0
   -4.3301   -1.5000    0.0000 C   0  0  0  0  0  0  0  0  0  0  0  0
   -5.6292   -2.2500    0.0000 C   0  0  0  0  0  0  0  0  0  0  0  0
   -5.6292   -3.7500    0.0000 C   0  0  0  0  0  0  0  0  0  0  0  0
   -4.3301   -4.5000    0.0000 C   0  0  0  0  0  0  0  0  0  0  0  0
   -3.5801   -5.7990    0.0000 C   0  0  0  0  0  0  0  0  0  0  0  0
   -4.6408   -6.8597    0.0000 C   0  0  0  0  0  0  0  0  0  0  0  0
   -2.2811   -6.5490    0.0000 N   0  0  0  0  0  0  0  0  0  0  0  0
   -2.2811   -5.0490    0.0000 C   0  0  0  0  0  0  0  0  0  0  0  0
   -3.0311   -3.7500    0.0000 C   0  0  0  0  0  0  0  0  0  0  0  0
   -1.5822   -3.3618    0.0000 C   0  0  0  0  0  0  0  0  0  0  0  0
   -5.6292   -0.7500    0.0000 C   0  0  0  0  0  0  0  0  0  0  0  0
   -0.4330   -0.7500    0.0000 C   0  0  0  0  0  0  0  0  0  0  0  0
   -4.6644   -2.6961    0.0000 H   0  0  0  0  0  0  0  0  0  0  0  0
   -1.9143   -2.9477    0.0000 H   0  0  0  0  0  0  0  0  0  0  0  0
   -5.4175    0.8032    0.0000 H   0  0  0  0  0  0  0  0  0  0  0  0
   -5.7268    0.1685    0.0000 H   0  0  0  0  0  0  0  0  0  0  0  0
   -3.9311   -2.2347    0.0000 H   0  0  0  0  0  0  0  0  0  0  0  0
   -4.6493   -3.4380    0.0000 H   0  0  0  0  0  0  0  0  0  0  0  0
   -7.2202   -0.2484    0.0000 H   0  0  0  0  0  0  0  0  0  0  0  0
   -9.3138   -1.6453    0.0000 H   0  0  0  0  0  0  0  0  0  0  0  0
   -9.0030   -3.9223    0.0000 H   0  0  0  0  0  0  0  0  0  0  0  0
   -6.7943   -4.7207    0.0000 H   0  0  0  0  0  0  0  0  0  0  0  0
   -5.2102    1.7601    0.0000 H   0  0  0  0  0  0  0  0  0  0  0  0
   -3.9142    3.1880    0.0000 H   0  0  0  0  0  0  0  0  0  0  0  0
   -2.9818    3.4868    0.0000 H   0  0  0  0  0  0  0  0  0  0  0  0
   -1.2180    3.2161    0.0000 H   0  0  0  0  0  0  0  0  0  0  0  0
    0.3124    0.9369    0.0000 H   0  0  0  0  0  0  0  0  0  0  0  0
    0.8967    1.6205    0.0000 H   0  0  0  0  0  0  0  0  0  0  0  0
   -1.5342    3.3690    0.0000 H   0  0  0  0  0  0  0  0  0  0  0  0
    1.8683    2.1321    0.0000 H   0  0  0  0  0  0  0  0  0  0  0  0
    1.9849    5.1299    0.0000 H   0  0  0  0  0  0  0  0  0  0  0  0
    4.9243    3.5144    0.0000 H   0  0  0  0  0  0  0  0  0  0  0  0
    3.3671    2.0738    0.0000 H   0  0  0  0  0  0  0  0  0  0  0  0
    3.4837    5.0716    0.0000 H   0  0  0  0  0  0  0  0  0  0  0  0
   -1.5985    4.3176    0.0000 H   0  0  0  0  0  0  0  0  0  0  0  0
    1.1313    5.5485    0.0000 H   0  0  0  0  0  0  0  0  0  0  0  0
   -2.2023    5.4882    0.0000 H   0  0  0  0  0  0  0  0  0  0  0  0
    1.6842    7.7416    0.0000 H   0  0  0  0  0  0  0  0  0  0  0  0
    1.2125    5.8106    0.0000 H   0  0  0  0  0  0  0  0  0  0  0  0
   -1.0409    9.6971    0.0000 H   0  0  0  0  0  0  0  0  0  0  0  0
    0.9853    9.0688    0.0000 H   0  0  0  0  0  0  0  0  0  0  0  0
   -3.6953    8.2992    0.0000 H   0  0  0  0  0  0  0  0  0  0  0  0
   -2.4644    5.5695    0.0000 H   0  0  0  0  0  0  0  0  0  0  0  0
   -5.6508    5.5741    0.0000 H   0  0  0  0  0  0  0  0  0  0  0  0
   -5.0225    7.6003    0.0000 H   0  0  0  0  0  0  0  0  0  0  0  0
   -3.6246    4.9458    0.0000 H   0  0  0  0  0  0  0  0  0  0  0  0
   -1.1830    2.0490    0.0000 H   0  0  0  0  0  0  0  0  0  0  0  0
    1.9267    1.0607    0.0000 H   0  0  0  0  0  0  0  0  0  0  0  0
    2.9151   -0.5490    0.0000 H   0  0  0  0  0  0  0  0  0  0  0  0
    3.1160   -3.8971    0.0000 H   0  0  0  0  0  0  0  0  0  0  0  0
    3.6651   -1.8481    0.0000 H   0  0  0  0  0  0  0  0  0  0  0  0
    1.1681   -3.5008    0.0000 H   0  0  0  0  0  0  0  0  0  0  0  0
    0.9030   -3.4298    0.0000 H   0  0  0  0  0  0  0  0  0  0  0  0
   -1.0081   -4.2988    0.0000 H   0  0  0  0  0  0  0  0  0  0  0  0
   -2.7741   -0.4210    0.0000 H   0  0  0  0  0  0  0  0  0  0  0  0
   -3.9167   -0.0581    0.0000 H   0  0  0  0  0  0  0  0  0  0  0  0
   -4.1737   -1.8870    0.0000 H   0  0  0  0  0  0  0  0  0  0  0  0
   -6.3102   -5.0865    0.0000 H   0  0  0  0  0  0  0  0  0  0  0  0
   -7.1255   -3.8547    0.0000 H   0  0  0  0  0  0  0  0  0  0  0  0
   -5.3908   -5.5607    0.0000 H   0  0  0  0  0  0  0  0  0  0  0  0
   -5.7014   -7.9204    0.0000 H   0  0  0  0  0  0  0  0  0  0  0  0
   -3.5801   -7.9204    0.0000 H   0  0  0  0  0  0  0  0  0  0  0  0
   -5.9266   -6.0872    0.0000 H   0  0  0  0  0  0  0  0  0  0  0  0
   -1.5311   -7.8481    0.0000 H   0  0  0  0  0  0  0  0  0  0  0  0
   -0.7813   -5.0229    0.0000 H   0  0  0  0  0  0  0  0  0  0  0  0
   -0.1333   -2.9735    0.0000 H   0  0  0  0  0  0  0  0  0  0  0  0
   -1.1940   -4.8107    0.0000 H   0  0  0  0  0  0  0  0  0  0  0  0
   -1.6083   -1.8620    0.0000 H   0  0  0  0  0  0  0  0  0  0  0  0
   -6.5319    0.4479    0.0000 H   0  0  0  0  0  0  0  0  0  0  0  0
  1  2  2  3
  2  3  1  0
  3  4  1  0
  4  5  1  0
  5  6  1  0
  6  7  1  0
  7  8  1  0
  3  9  1  0
  9 10  1  0
 10 11  1  0
 11 12  1  0
 12 13  1  0
 13 14  1  0
 14 15  1  0
 13 16  1  0
 16 17  1  0
 17 18  1  0
 18 19  1  0
 19 20  1  0
 20 21  1  1
 20 22  1  0
 22 23  1  0
 11 24  1  0
 24 25  1  0
 25 26  1  0
 26 27  1  0
 27 28  1  0
 27 29  1  0
 29 30  1  0
 30 31  1  0
 31 32  1  0
 32 33  1  0
 33 34  1  0
 34 35  1  0
 35 36  1  0
 36 37  1  0
 37 38  1  6
 37 39  1  0
 39 40  1  0
 40 41  1  0
 41 42  1  6
 34 43  1  0
 44 31  1  6
 24  2  1  1
 44 25  1  0
  8  5  1  0
 20 17  1  0
 30 24  1  0
 41 32  1  0
  8  6  1  0
 44 26  1  0
 44 29  1  0
 43 32  1  0
 43 33  1  0
 41 36  1  0
 40 37  1  0
  1 45  1  0
  1 46  1  0
  3 47  1  6
  4 48  1  0
  4 49  1  0
  5 50  1  6
  6 51  1  1
  7 52  1  0
  7 53  1  0
  8 54  1  1
  9 55  1  0
  9 56  1  0
 10 57  1  0
 10 58  1  0
 11 59  1  1
 12 60  1  0
 12 61  1  0
 14 62  1  0
 14 63  1  0
 15 64  1  0
 15 65  1  0
 15 66  1  0
 16 67  1  0
 16 68  1  0
 17 69  1  1
 18 70  1  0
 18 71  1  0
 19 72  1  0
 19 73  1  0
 22 74  1  0
 22 75  1  0
 23 76  1  0
 23 77  1  0
 23 78  1  0
 25 79  1  6
 26 80  1  6
 27 81  1  6
 28 82  1  0
 28 83  1  0
 28 84  1  0
 29 85  1  6
 30 86  1  1
 31 87  1  1
 33 88  1  6
 34 89  1  6
 35 90  1  0
 35 91  1  0
 36 92  1  1
 38 93  1  0
 38 94  1  0
 38 95  1  0
 39 96  1  0
 40 97  1  6
 42 98  1  0
 42 99  1  0
 42100  1  0
 43101  1  6
M  END
$$$$
