
     RDKit          2D

 41 43  0  0  0  0  0  0  0  0999 V2000
   11.2786    4.3151    0.0000 C   0  0  0  0  0  0  0  0  0  0  0  0
   10.1296    3.3509    0.0000 C   0  0  0  0  0  0  0  0  0  0  0  0
    8.9805    2.3867    0.0000 C   0  0  0  0  0  0  0  0  0  0  0  0
    7.8314    1.4225    0.0000 C   0  0  0  0  0  0  0  0  0  0  0  0
    6.6824    0.4584    0.0000 N   0  0  0  0  0  0  0  0  0  0  0  0
    5.2728    0.9714    0.0000 C   0  0  0  0  0  0  0  0  0  0  0  0
    3.8633    1.4844    0.0000 C   0  0  0  0  0  0  0  0  0  0  0  0
    2.4537    1.9974    0.0000 C   0  0  0  0  0  0  0  0  0  0  0  0
    1.0442    2.5105    0.0000 As  0  0  0  0  0  3  0  0  0  0  0  0
    0.0800    3.6595    0.0000 C   0  0  0  0  0  0  0  0  0  0  0  0
   -0.4330    2.2500    0.0000 C   0  0  0  0  0  0  0  0  0  0  0  0
   -0.4330    0.7500    0.0000 C   0  0  0  0  0  0  0  0  0  0  0  0
    0.8660   -0.0000    0.0000 N   0  0  0  0  0  0  0  0  0  0  0  0
   -0.4330   -0.7500    0.0000 C   0  0  0  0  0  0  0  0  0  0  0  0
   -1.7321   -0.0000    0.0000 C   0  0  0  0  0  0  0  0  0  0  0  0
   -2.6962   -1.1491    0.0000 S   0  0  0  0  0  0  0  0  0  0  0  0
    4.7598   -0.4382    0.0000 S   0  0  0  0  0  0  0  0  0  0  0  0
    5.7240   -1.5872    0.0000 Se  0  0  0  0  0  2  0  0  0  0  0  0
   12.4277    5.2793    0.0000 H   0  0  0  0  0  0  0  0  0  0  0  0
   10.3144    5.4641    0.0000 H   0  0  0  0  0  0  0  0  0  0  0  0
   12.2428    3.1660    0.0000 H   0  0  0  0  0  0  0  0  0  0  0  0
    9.1654    4.5000    0.0000 H   0  0  0  0  0  0  0  0  0  0  0  0
   11.0937    2.2018    0.0000 H   0  0  0  0  0  0  0  0  0  0  0  0
    9.9447    1.2376    0.0000 H   0  0  0  0  0  0  0  0  0  0  0  0
    8.0163    3.5358    0.0000 H   0  0  0  0  0  0  0  0  0  0  0  0
    6.8672    2.5716    0.0000 H   0  0  0  0  0  0  0  0  0  0  0  0
    8.7956    0.2735    0.0000 H   0  0  0  0  0  0  0  0  0  0  0  0
    6.9428   -1.0189    0.0000 H   0  0  0  0  0  0  0  0  0  0  0  0
    5.7858    2.3809    0.0000 H   0  0  0  0  0  0  0  0  0  0  0  0
    3.3502    0.0749    0.0000 H   0  0  0  0  0  0  0  0  0  0  0  0
    4.3763    2.8940    0.0000 H   0  0  0  0  0  0  0  0  0  0  0  0
    2.1805    0.8136    0.0000 H   0  0  0  0  0  0  0  0  0  0  0  0
    2.9668    3.4070    0.0000 H   0  0  0  0  0  0  0  0  0  0  0  0
   -1.2190    4.4095    0.0000 H   0  0  0  0  0  0  0  0  0  0  0  0
    1.0442    4.8086    0.0000 H   0  0  0  0  0  0  0  0  0  0  0  0
   -1.9102    2.5105    0.0000 H   0  0  0  0  0  0  0  0  0  0  0  0
    2.0720   -0.1481    0.0000 H   0  0  0  0  0  0  0  0  0  0  0  0
   -0.4330   -2.2500    0.0000 H   0  0  0  0  0  0  0  0  0  0  0  0
   -2.6962    1.1491    0.0000 H   0  0  0  0  0  0  0  0  0  0  0  0
   -4.1734   -0.8886    0.0000 H   0  0  0  0  0  0  0  0  0  0  0  0
    5.2109   -2.9968    0.0000 H   0  0  0  0  0  0  0  0  0  0  0  0
  1  2  1  0
  2  3  1  0
  3  4  1  0
  4  5  1  0
  5  6  1  0
  6  7  1  0
  7  8  1  0
  8  9  1  0
  9 10  1  0
 10 11  1  0
 11 12  1  0
 12 13  1  0
 13 14  1  0
 14 15  1  0
 15 16  1  0
  6 17  1  0
 17 18  1  0
 11  9  1  0
 14 12  1  0
 15 12  1  0
  1 19  1  0
  1 20  1  0
  1 21  1  0
  2 22  1  0
  2 23  1  0
  3 24  1  0
  3 25  1  0
  4 26  1  0
  4 27  1  0
  5 28  1  0
  6 29  1  0
  7 30  1  0
  7 31  1  0
  8 32  1  0
  8 33  1  0
 10 34  1  0
 10 35  1  0
 11 36  1  0
 13 37  1  0
 14 38  1  0
 15 39  1  0
 16 40  1  0
 18 41  1  0
M  END
$$$$
