
     RDKit          2D

 57 65  0  0  0  0  0  0  0  0999 V2000
   -0.8445    6.5031    0.0000 O   0  0  0  0  0  0  0  0  0  0  0  0
   -1.6895    5.2638    0.0000 C   0  0  0  0  0  0  0  0  0  0  0  0
   -3.0568    5.8807    0.0000 C   0  0  0  0  0  0  0  0  0  0  0  0
   -2.9074    4.3881    0.0000 C   0  0  0  0  0  0  0  0  0  0  0  0
   -2.2566    3.0367    0.0000 C   0  0  0  0  0  0  0  0  0  0  0  0
   -1.6058    1.6852    0.0000 C   0  0  0  0  0  0  0  0  0  0  0  0
   -0.4330    0.7500    0.0000 C   0  0  0  0  0  0  0  0  0  0  0  0
    0.8660    0.0000    0.0000 C   0  0  0  0  0  0  0  0  0  0  0  0
   -0.4330   -0.7500    0.0000 C   0  0  0  0  0  0  0  0  0  0  0  0
   -0.2094   -2.2332    0.0000 C   0  0  0  0  0  0  0  0  0  0  0  0
   -1.6058   -1.6852    0.0000 C   0  0  0  0  0  0  0  0  0  0  0  0
   -3.0682   -1.3515    0.0000 C   0  0  0  0  0  0  0  0  0  0  0  0
   -3.7190    0.0000    0.0000 C   0  0  0  0  0  0  0  0  0  0  0  0
   -3.0682    1.3515    0.0000 C   0  0  0  0  0  0  0  0  0  0  0  0
   -4.5640    1.2394    0.0000 C   0  0  0  0  0  0  0  0  0  0  0  0
   -5.2148   -0.1121    0.0000 C   0  0  0  0  0  0  0  0  0  0  0  0
   -6.6587    0.2942    0.0000 C   0  0  0  0  0  0  0  0  0  0  0  0
   -6.2525    1.7381    0.0000 C   0  0  0  0  0  0  0  0  0  0  0  0
   -5.8462    3.1820    0.0000 C   0  0  0  0  0  0  0  0  0  0  0  0
   -5.4399    4.6260    0.0000 C   0  0  0  0  0  0  0  0  0  0  0  0
   -6.7914    5.2768    0.0000 C   0  0  0  0  0  0  0  0  0  0  0  0
   -6.9035    6.7726    0.0000 C   0  0  0  0  0  0  0  0  0  0  0  0
   -5.5520    6.1218    0.0000 C   0  0  0  0  0  0  0  0  0  0  0  0
   -7.0650   -1.1498    0.0000 C   0  0  0  0  0  0  0  0  0  0  0  0
   -8.5089   -0.7435    0.0000 O   0  0  0  0  0  0  0  0  0  0  0  0
   -8.1027    0.7004    0.0000 N   0  0  0  0  0  0  0  0  0  0  0  0
    0.6513    6.3910    0.0000 H   0  0  0  0  0  0  0  0  0  0  0  0
   -0.6154    4.4460    0.0000 H   0  0  0  0  0  0  0  0  0  0  0  0
   -4.5526    5.9928    0.0000 H   0  0  0  0  0  0  0  0  0  0  0  0
   -2.6866    7.3343    0.0000 H   0  0  0  0  0  0  0  0  0  0  0  0
   -4.2911    3.8089    0.0000 H   0  0  0  0  0  0  0  0  0  0  0  0
   -2.9748    2.6908    0.0000 H   0  0  0  0  0  0  0  0  0  0  0  0
   -0.9779    3.4698    0.0000 H   0  0  0  0  0  0  0  0  0  0  0  0
   -0.4330    2.6205    0.0000 H   0  0  0  0  0  0  0  0  0  0  0  0
    0.4120    1.9894    0.0000 H   0  0  0  0  0  0  0  0  0  0  0  0
    1.8302    1.1491    0.0000 H   0  0  0  0  0  0  0  0  0  0  0  0
    1.8302   -1.1491    0.0000 H   0  0  0  0  0  0  0  0  0  0  0  0
    1.2901   -2.2706    0.0000 H   0  0  0  0  0  0  0  0  0  0  0  0
   -0.5067   -3.7035    0.0000 H   0  0  0  0  0  0  0  0  0  0  0  0
   -2.0479   -3.1186    0.0000 H   0  0  0  0  0  0  0  0  0  0  0  0
   -3.0682   -2.8515    0.0000 H   0  0  0  0  0  0  0  0  0  0  0  0
   -4.4790   -1.8610    0.0000 H   0  0  0  0  0  0  0  0  0  0  0  0
   -3.2822    2.1194    0.0000 H   0  0  0  0  0  0  0  0  0  0  0  0
   -5.4089    2.4787    0.0000 H   0  0  0  0  0  0  0  0  0  0  0  0
   -5.3641   -1.6046    0.0000 H   0  0  0  0  0  0  0  0  0  0  0  0
   -7.6964    2.1444    0.0000 H   0  0  0  0  0  0  0  0  0  0  0  0
   -4.7531    1.6933    0.0000 H   0  0  0  0  0  0  0  0  0  0  0  0
   -7.2901    3.5883    0.0000 H   0  0  0  0  0  0  0  0  0  0  0  0
   -4.4626    2.6028    0.0000 H   0  0  0  0  0  0  0  0  0  0  0  0
   -3.9767    4.2958    0.0000 H   0  0  0  0  0  0  0  0  0  0  0  0
   -8.0307    4.4318    0.0000 H   0  0  0  0  0  0  0  0  0  0  0  0
   -8.3960    6.9220    0.0000 H   0  0  0  0  0  0  0  0  0  0  0  0
   -6.4972    8.2165    0.0000 H   0  0  0  0  0  0  0  0  0  0  0  0
   -4.3127    6.9668    0.0000 H   0  0  0  0  0  0  0  0  0  0  0  0
   -7.4712   -2.5937    0.0000 H   0  0  0  0  0  0  0  0  0  0  0  0
   -5.6813   -1.7290    0.0000 H   0  0  0  0  0  0  0  0  0  0  0  0
   -8.8364    2.0087    0.0000 H   0  0  0  0  0  0  0  0  0  0  0  0
  1  2  1  0
  2  3  1  0
  3  4  1  0
  4  5  1  0
  5  6  1  0
  6  7  1  0
  7  8  1  0
  9  8  1  6
  9 10  1  0
 10 11  1  0
 11 12  1  0
 13 12  1  6
 13 14  1  0
 14 15  1  0
 15 16  1  0
 16 17  1  0
 17 18  1  1
 18 19  1  0
 19 20  1  0
 20 21  1  0
 21 22  1  0
 22 23  1  0
 17 24  1  0
 24 25  1  0
 25 26  1  0
  4  2  1  0
 14  6  1  0
 26 17  1  0
  9  7  1  0
 15 13  1  0
 23 20  1  0
 11  9  1  0
 16 13  1  0
 23 21  1  0
  1 27  1  0
  2 28  1  1
  3 29  1  0
  3 30  1  0
  4 31  1  6
  5 32  1  0
  5 33  1  0
  6 34  1  6
  7 35  1  1
  8 36  1  0
  8 37  1  0
 10 38  1  0
 10 39  1  0
 11 40  1  6
 12 41  1  0
 12 42  1  0
 14 43  1  1
 15 44  1  6
 16 45  1  1
 18 46  1  0
 18 47  1  0
 19 48  1  0
 19 49  1  0
 20 50  1  1
 21 51  1  1
 22 52  1  0
 22 53  1  0
 23 54  1  1
 24 55  1  0
 24 56  1  0
 26 57  1  0
M  END
$$$$
