
     RDKit          2D

 36 39  0  0  0  0  0  0  0  0999 V2000
   -3.0311   -2.2500    0.0000 O   0  0  0  0  0  0  0  0  0  0  0  0
   -1.7321   -3.0000    0.0000 C   0  0  0  0  0  0  0  0  0  0  0  0
   -0.4330   -2.2500    0.0000 C   0  0  0  0  0  0  0  0  0  0  0  0
    0.8660   -3.0000    0.0000 N   0  0  0  0  0  0  0  0  0  0  0  0
    2.1651   -2.2500    0.0000 O   0  0  0  0  0  0  0  0  0  0  0  0
    2.1651   -0.7500    0.0000 C   0  0  0  0  0  0  0  0  0  0  0  0
    3.6423   -1.0105    0.0000 C   0  0  0  0  0  0  0  0  0  0  0  0
    5.1195   -0.7500    0.0000 C   0  0  0  0  0  0  0  0  0  0  0  0
    4.1553    0.3991    0.0000 C   0  0  0  0  0  0  0  0  0  0  0  0
    5.1195    1.5481    0.0000 C   0  0  0  0  0  0  0  0  0  0  0  0
    4.6065    2.9577    0.0000 O   0  0  0  0  0  0  0  0  0  0  0  0
    6.5967    1.2877    0.0000 O   0  0  0  0  0  0  0  0  0  0  0  0
    0.8660    0.0000    0.0000 C   0  0  0  0  0  0  0  0  0  0  0  0
   -0.4330    0.7500    0.0000 C   0  0  0  0  0  0  0  0  0  0  0  0
   -1.9102    1.0105    0.0000 C   0  0  0  0  0  0  0  0  0  0  0  0
   -3.3874    1.2709    0.0000 C   0  0  0  0  0  0  0  0  0  0  0  0
   -4.6865    2.0209    0.0000 C   0  0  0  0  0  0  0  0  0  0  0  0
   -3.3874    2.7709    0.0000 C   0  0  0  0  0  0  0  0  0  0  0  0
   -0.4330   -0.7500    0.0000 C   0  0  0  0  0  0  0  0  0  0  0  0
   -1.7321   -4.5000    0.0000 H   0  0  0  0  0  0  0  0  0  0  0  0
    2.4383    0.4339    0.0000 H   0  0  0  0  0  0  0  0  0  0  0  0
    3.6423   -2.5105    0.0000 H   0  0  0  0  0  0  0  0  0  0  0  0
    5.6325   -2.1595    0.0000 H   0  0  0  0  0  0  0  0  0  0  0  0
    6.4185   -0.0000    0.0000 H   0  0  0  0  0  0  0  0  0  0  0  0
    3.1850    1.1303    0.0000 H   0  0  0  0  0  0  0  0  0  0  0  0
    7.5609    2.4367    0.0000 H   0  0  0  0  0  0  0  0  0  0  0  0
    0.4526   -1.4419    0.0000 H   0  0  0  0  0  0  0  0  0  0  0  0
    0.0800    2.1595    0.0000 H   0  0  0  0  0  0  0  0  0  0  0  0
   -1.5155    2.3015    0.0000 H   0  0  0  0  0  0  0  0  0  0  0  0
   -2.2655   -0.1514    0.0000 H   0  0  0  0  0  0  0  0  0  0  0  0
   -3.9005   -0.1386    0.0000 H   0  0  0  0  0  0  0  0  0  0  0  0
   -5.6507    0.8719    0.0000 H   0  0  0  0  0  0  0  0  0  0  0  0
   -5.6507    3.1700    0.0000 H   0  0  0  0  0  0  0  0  0  0  0  0
   -3.9005    4.1805    0.0000 H   0  0  0  0  0  0  0  0  0  0  0  0
   -2.0964    3.1657    0.0000 H   0  0  0  0  0  0  0  0  0  0  0  0
   -1.6390   -0.8981    0.0000 H   0  0  0  0  0  0  0  0  0  0  0  0
  1  2  2  0
  2  3  1  0
  3  4  2  0
  4  5  1  0
  5  6  1  0
  6  7  1  0
  7  8  1  0
  8  9  1  0
  9 10  1  0
 10 11  2  0
 10 12  1  0
  6 13  1  0
 13 14  1  0
 14 15  1  0
 15 16  1  0
 16 17  1  0
 17 18  1  0
 14 19  1  0
 19  3  1  0
  9  7  1  0
 19 13  1  0
 18 16  1  0
  2 20  1  0
  6 21  1  0
  7 22  1  0
  8 23  1  0
  8 24  1  0
  9 25  1  0
 12 26  1  0
 13 27  1  0
 14 28  1  0
 15 29  1  0
 15 30  1  0
 16 31  1  0
 17 32  1  0
 17 33  1  0
 18 34  1  0
 18 35  1  0
 19 36  1  0
M  END
$$$$
