
     RDKit          2D

 63 68  0  0  0  0  0  0  0  0999 V2000
   -0.5532   10.3546    0.0000 C   0  0  0  0  0  0  0  0  0  0  0  0
   -0.2158    8.8930    0.0000 C   0  0  0  0  0  0  0  0  0  0  0  0
    0.1216    7.4314    0.0000 C   0  0  0  0  0  0  0  0  0  0  0  0
   -1.2028    6.7272    0.0000 C   0  0  0  0  0  0  0  0  0  0  0  0
    0.0693    5.9324    0.0000 C   0  0  0  0  0  0  0  0  0  0  0  0
    0.7735    4.6079    0.0000 C   0  0  0  0  0  0  0  0  0  0  0  0
   -0.4086    3.6844    0.0000 C   0  0  0  0  0  0  0  0  0  0  0  0
   -1.1128    5.0089    0.0000 C   0  0  0  0  0  0  0  0  0  0  0  0
    0.7062    2.6807    0.0000 C   0  0  0  0  0  0  0  0  0  0  0  0
    0.3943    1.2135    0.0000 C   0  0  0  0  0  0  0  0  0  0  0  0
    1.2760    0.0000    0.0000 C   0  0  0  0  0  0  0  0  0  0  0  0
    2.3907    1.0037    0.0000 C   0  0  0  0  0  0  0  0  0  0  0  0
    0.3943   -1.2135    0.0000 C   0  0  0  0  0  0  0  0  0  0  0  0
    1.6933   -1.9635    0.0000 C   0  0  0  0  0  0  0  0  0  0  0  0
   -0.2158   -2.5838    0.0000 C   0  0  0  0  0  0  0  0  0  0  0  0
   -0.8259   -3.9542    0.0000 C   0  0  0  0  0  0  0  0  0  0  0  0
    0.0558   -5.1677    0.0000 O   0  0  0  0  0  0  0  0  0  0  0  0
   -2.3177   -4.1110    0.0000 O   0  0  0  0  0  0  0  0  0  0  0  0
   -1.0323   -0.7500    0.0000 C   0  0  0  0  0  0  0  0  0  0  0  0
   -1.0323    0.7500    0.0000 C   0  0  0  0  0  0  0  0  0  0  0  0
   -2.1470    1.7537    0.0000 C   0  0  0  0  0  0  0  0  0  0  0  0
   -1.8351    3.2209    0.0000 C   0  0  0  0  0  0  0  0  0  0  0  0
   -2.0439    4.7063    0.0000 C   0  0  0  0  0  0  0  0  0  0  0  0
    1.5683    5.8800    0.0000 C   0  0  0  0  0  0  0  0  0  0  0  0
    1.6207    7.3791    0.0000 C   0  0  0  0  0  0  0  0  0  0  0  0
    2.8928    6.5842    0.0000 C   0  0  0  0  0  0  0  0  0  0  0  0
    3.8965    7.6989    0.0000 O   0  0  0  0  0  0  0  0  0  0  0  0
   -0.8907   11.8161    0.0000 H   0  0  0  0  0  0  0  0  0  0  0  0
   -2.0148   10.0171    0.0000 H   0  0  0  0  0  0  0  0  0  0  0  0
    0.9083   10.6920    0.0000 H   0  0  0  0  0  0  0  0  0  0  0  0
   -1.7076    8.7362    0.0000 H   0  0  0  0  0  0  0  0  0  0  0  0
    1.2457    9.2304    0.0000 H   0  0  0  0  0  0  0  0  0  0  0  0
   -2.2635    7.7879    0.0000 H   0  0  0  0  0  0  0  0  0  0  0  0
   -1.8637    6.2815    0.0000 H   0  0  0  0  0  0  0  0  0  0  0  0
    2.0022    3.7476    0.0000 H   0  0  0  0  0  0  0  0  0  0  0  0
   -1.6462    5.6012    0.0000 H   0  0  0  0  0  0  0  0  0  0  0  0
   -2.5682    4.6461    0.0000 H   0  0  0  0  0  0  0  0  0  0  0  0
    0.0019    6.0126    0.0000 H   0  0  0  0  0  0  0  0  0  0  0  0
    2.1916    2.4721    0.0000 H   0  0  0  0  0  0  0  0  0  0  0  0
    1.6502    3.8464    0.0000 H   0  0  0  0  0  0  0  0  0  0  0  0
    1.7425    1.8712    0.0000 H   0  0  0  0  0  0  0  0  0  0  0  0
    2.5047   -0.8603    0.0000 H   0  0  0  0  0  0  0  0  0  0  0  0
    3.5054    2.0074    0.0000 H   0  0  0  0  0  0  0  0  0  0  0  0
    3.3944   -0.1110    0.0000 H   0  0  0  0  0  0  0  0  0  0  0  0
    1.6866    2.3282    0.0000 H   0  0  0  0  0  0  0  0  0  0  0  0
    2.9924   -2.7135    0.0000 H   0  0  0  0  0  0  0  0  0  0  0  0
    1.1073   -3.3443    0.0000 H   0  0  0  0  0  0  0  0  0  0  0  0
    2.5961   -0.7656    0.0000 H   0  0  0  0  0  0  0  0  0  0  0  0
    1.0699   -3.3564    0.0000 H   0  0  0  0  0  0  0  0  0  0  0  0
   -1.6503   -2.1453    0.0000 H   0  0  0  0  0  0  0  0  0  0  0  0
   -2.9278   -5.4813    0.0000 H   0  0  0  0  0  0  0  0  0  0  0  0
   -1.5207   -2.1683    0.0000 H   0  0  0  0  0  0  0  0  0  0  0  0
   -2.5321   -0.7762    0.0000 H   0  0  0  0  0  0  0  0  0  0  0  0
   -2.4026    0.1399    0.0000 H   0  0  0  0  0  0  0  0  0  0  0  0
   -3.5378    2.3156    0.0000 H   0  0  0  0  0  0  0  0  0  0  0  0
   -3.0910    0.5880    0.0000 H   0  0  0  0  0  0  0  0  0  0  0  0
   -3.3342    3.2733    0.0000 H   0  0  0  0  0  0  0  0  0  0  0  0
   -2.6059    6.0971    0.0000 H   0  0  0  0  0  0  0  0  0  0  0  0
   -3.5293    4.4976    0.0000 H   0  0  0  0  0  0  0  0  0  0  0  0
   -0.6532    5.2683    0.0000 H   0  0  0  0  0  0  0  0  0  0  0  0
    2.0593    8.8136    0.0000 H   0  0  0  0  0  0  0  0  0  0  0  0
    3.8163    5.4022    0.0000 H   0  0  0  0  0  0  0  0  0  0  0  0
    5.3637    7.3871    0.0000 H   0  0  0  0  0  0  0  0  0  0  0  0
  1  2  1  0
  3  2  1  6
  3  4  1  0
  5  4  1  1
  5  6  1  0
  6  7  1  0
  7  8  1  6
  7  9  1  0
  9 10  1  0
 10 11  1  0
 11 12  1  0
 11 13  1  0
 13 14  1  1
 13 15  1  0
 15 16  1  0
 16 17  2  0
 16 18  1  0
 13 19  1  0
 19 20  1  0
 20 21  1  0
 21 22  1  0
 22 23  1  0
  6 24  1  0
 24 25  1  0
 25 26  1  0
 26 27  1  0
  5  3  1  0
 22  7  1  0
 26 24  1  0
 25  3  1  0
 24  5  1  6
 20 10  1  0
  1 28  1  0
  1 29  1  0
  1 30  1  0
  2 31  1  0
  2 32  1  0
  4 33  1  0
  4 34  1  0
  6 35  1  6
  8 36  1  0
  8 37  1  0
  8 38  1  0
  9 39  1  0
  9 40  1  0
 10 41  1  1
 11 42  1  1
 12 43  1  0
 12 44  1  0
 12 45  1  0
 14 46  1  0
 14 47  1  0
 14 48  1  0
 15 49  1  0
 15 50  1  0
 18 51  1  0
 19 52  1  0
 19 53  1  0
 20 54  1  6
 21 55  1  0
 21 56  1  0
 22 57  1  6
 23 58  1  0
 23 59  1  0
 23 60  1  0
 25 61  1  1
 26 62  1  6
 27 63  1  0
M  END
$$$$
