
     RDKit          2D

 34 36  0  0  0  0  0  0  0  0999 V2000
   -7.1404   -2.4055    0.0000 N   0  0  0  0  0  0  0  0  0  0  0  0
   -6.0798   -1.3449    0.0000 C   0  0  0  0  0  0  0  0  0  0  0  0
   -4.6309   -1.7331    0.0000 C   0  0  0  0  0  0  0  0  0  0  0  0
   -3.1820   -2.1213    0.0000 C   0  0  0  0  0  0  0  0  0  0  0  0
   -2.1213   -1.0607    0.0000 C   0  0  0  0  0  0  0  0  0  0  0  0
   -1.0607   -2.1213    0.0000 C   0  0  0  0  0  0  0  0  0  0  0  0
   -0.0000   -1.0607    0.0000 C   0  0  0  0  0  0  0  0  0  0  0  0
    1.0607   -0.0000    0.0000 O   0  0  0  0  0  0  0  0  0  0  0  0
   -0.0000    1.0607    0.0000 C   0  0  0  0  0  0  0  0  0  0  0  0
   -1.0607   -0.0000    0.0000 C   0  0  0  0  0  0  0  0  0  0  0  0
   -6.4680    0.1040    0.0000 C   0  0  0  0  0  0  0  0  0  0  0  0
   -6.5465    1.6020    0.0000 C   0  0  0  0  0  0  0  0  0  0  0  0
   -7.9954    1.9902    0.0000 C   0  0  0  0  0  0  0  0  0  0  0  0
   -8.8123    0.7322    0.0000 C   0  0  0  0  0  0  0  0  0  0  0  0
   -9.9781    1.6762    0.0000 N   0  0  0  0  0  0  0  0  0  0  0  0
   -7.8684   -0.4335    0.0000 O   0  0  0  0  0  0  0  0  0  0  0  0
   -6.7522   -3.8544    0.0000 H   0  0  0  0  0  0  0  0  0  0  0  0
   -8.5893   -2.0173    0.0000 H   0  0  0  0  0  0  0  0  0  0  0  0
   -2.9733   -3.6067    0.0000 H   0  0  0  0  0  0  0  0  0  0  0  0
   -3.1820    0.0000    0.0000 H   0  0  0  0  0  0  0  0  0  0  0  0
   -0.0000   -3.1820    0.0000 H   0  0  0  0  0  0  0  0  0  0  0  0
   -1.9841   -3.3034    0.0000 H   0  0  0  0  0  0  0  0  0  0  0  0
    1.0607   -2.1213    0.0000 H   0  0  0  0  0  0  0  0  0  0  0  0
   -1.0607    2.1213    0.0000 H   0  0  0  0  0  0  0  0  0  0  0  0
    1.0607    2.1213    0.0000 H   0  0  0  0  0  0  0  0  0  0  0  0
   -2.1213    1.0607    0.0000 H   0  0  0  0  0  0  0  0  0  0  0  0
   -4.9865    0.3387    0.0000 H   0  0  0  0  0  0  0  0  0  0  0  0
   -5.0485    1.5235    0.0000 H   0  0  0  0  0  0  0  0  0  0  0  0
   -6.3118    3.0835    0.0000 H   0  0  0  0  0  0  0  0  0  0  0  0
   -7.4578    3.3906    0.0000 H   0  0  0  0  0  0  0  0  0  0  0  0
   -9.0026    2.6696    0.0000 H   0  0  0  0  0  0  0  0  0  0  0  0
   -9.8730   -0.3285    0.0000 H   0  0  0  0  0  0  0  0  0  0  0  0
  -11.3784    1.1386    0.0000 H   0  0  0  0  0  0  0  0  0  0  0  0
   -9.9357    2.8904    0.0000 H   0  0  0  0  0  0  0  0  0  0  0  0
  1  2  1  0
  2  3  2  0
  3  4  2  0
  4  5  1  0
  5  6  1  0
  6  7  1  0
  7  8  1  0
  8  9  1  0
  9 10  1  0
  2 11  1  0
 11 12  1  0
 12 13  1  0
 13 14  1  0
 14 15  1  0
 14 16  1  0
 10  5  1  0
 16 11  1  0
 10  7  1  0
  1 17  1  0
  1 18  1  0
  4 19  1  0
  5 20  1  1
  6 21  1  0
  6 22  1  0
  7 23  1  6
  9 24  1  0
  9 25  1  0
 10 26  1  6
 11 27  1  6
 12 28  1  0
 12 29  1  0
 13 30  1  0
 13 31  1  0
 14 32  1  6
 15 33  1  0
 15 34  1  0
M  END
$$$$
