
     RDKit          2D

 84 85  0  0  0  0  0  0  0  0999 V2000
    7.0342   -9.3298    0.0000 C   0  0  0  0  0  0  0  0  0  0  0  0
    7.5473   -7.9203    0.0000 C   0  0  0  0  0  0  0  0  0  0  0  0
    9.0245   -7.6598    0.0000 C   0  0  0  0  0  0  0  0  0  0  0  0
   10.5017   -7.3993    0.0000 C   0  0  0  0  0  0  0  0  0  0  0  0
   11.9789   -7.1388    0.0000 C   0  0  0  0  0  0  0  0  0  0  0  0
   13.4561   -6.8784    0.0000 C   0  0  0  0  0  0  0  0  0  0  0  0
   14.4203   -8.0274    0.0000 C   0  0  0  0  0  0  0  0  0  0  0  0
   15.8975   -7.7670    0.0000 C   0  0  0  0  0  0  0  0  0  0  0  0
   10.2412   -5.9221    0.0000 C   0  0  0  0  0  0  0  0  0  0  0  0
    9.9807   -4.4449    0.0000 C   0  0  0  0  0  0  0  0  0  0  0  0
    9.7203   -2.9677    0.0000 N   0  0  0  0  0  0  0  0  0  0  0  0
    8.3107   -2.4547    0.0000 C   0  0  0  0  0  0  0  0  0  0  0  0
    6.9012   -1.9416    0.0000 C   0  0  0  0  0  0  0  0  0  0  0  0
    5.4916   -1.4286    0.0000 C   0  0  0  0  0  0  0  0  0  0  0  0
    4.9786   -2.8381    0.0000 C   0  0  0  0  0  0  0  0  0  0  0  0
    3.5691   -2.3251    0.0000 C   0  0  0  0  0  0  0  0  0  0  0  0
    2.1595   -1.8121    0.0000 C   0  0  0  0  0  0  0  0  0  0  0  0
    0.7500   -1.2990    0.0000 C   0  0  0  0  0  0  0  0  0  0  0  0
    1.5000    0.0000    0.0000 N   0  0  0  0  0  0  0  0  0  0  0  0
    0.7500    1.2990    0.0000 C   0  0  0  0  0  0  0  0  0  0  0  0
   -0.7500    1.2990    0.0000 C   0  0  0  0  0  0  0  0  0  0  0  0
   -2.1595    1.8121    0.0000 C   0  0  0  0  0  0  0  0  0  0  0  0
   -3.5691    2.3251    0.0000 C   0  0  0  0  0  0  0  0  0  0  0  0
   -1.5000    0.0000    0.0000 C   0  0  0  0  0  0  0  0  0  0  0  0
   -0.7500   -1.2990    0.0000 C   0  0  0  0  0  0  0  0  0  0  0  0
   -0.4895   -2.7762    0.0000 C   0  0  0  0  0  0  0  0  0  0  0  0
    6.3882   -3.3512    0.0000 C   0  0  0  0  0  0  0  0  0  0  0  0
    5.8751   -4.7607    0.0000 C   0  0  0  0  0  0  0  0  0  0  0  0
    5.3621   -6.1702    0.0000 C   0  0  0  0  0  0  0  0  0  0  0  0
    4.4656   -4.2477    0.0000 C   0  0  0  0  0  0  0  0  0  0  0  0
    3.0560   -3.7346    0.0000 C   0  0  0  0  0  0  0  0  0  0  0  0
    1.9070   -4.6988    0.0000 Se  0  0  0  0  0  2  0  0  0  0  0  0
    5.5570   -9.5903    0.0000 H   0  0  0  0  0  0  0  0  0  0  0  0
    7.9984  -10.4789    0.0000 H   0  0  0  0  0  0  0  0  0  0  0  0
    6.7303   -6.6622    0.0000 H   0  0  0  0  0  0  0  0  0  0  0  0
    9.0662   -8.4559    0.0000 H   0  0  0  0  0  0  0  0  0  0  0  0
    9.2576   -8.4221    0.0000 H   0  0  0  0  0  0  0  0  0  0  0  0
   10.7622   -8.8765    0.0000 H   0  0  0  0  0  0  0  0  0  0  0  0
   11.9004   -5.6409    0.0000 H   0  0  0  0  0  0  0  0  0  0  0  0
   12.2394   -8.6161    0.0000 H   0  0  0  0  0  0  0  0  0  0  0  0
   13.9691   -5.4688    0.0000 H   0  0  0  0  0  0  0  0  0  0  0  0
   13.9073   -9.4370    0.0000 H   0  0  0  0  0  0  0  0  0  0  0  0
   17.3747   -7.5065    0.0000 H   0  0  0  0  0  0  0  0  0  0  0  0
   16.1580   -9.2442    0.0000 H   0  0  0  0  0  0  0  0  0  0  0  0
   15.6370   -6.2898    0.0000 H   0  0  0  0  0  0  0  0  0  0  0  0
    8.7640   -6.1826    0.0000 H   0  0  0  0  0  0  0  0  0  0  0  0
   11.6757   -5.4835    0.0000 H   0  0  0  0  0  0  0  0  0  0  0  0
    8.5035   -4.7054    0.0000 H   0  0  0  0  0  0  0  0  0  0  0  0
   11.4579   -4.1844    0.0000 H   0  0  0  0  0  0  0  0  0  0  0  0
   10.8693   -2.0035    0.0000 H   0  0  0  0  0  0  0  0  0  0  0  0
    8.8238   -1.0451    0.0000 H   0  0  0  0  0  0  0  0  0  0  0  0
    7.9733   -3.9162    0.0000 H   0  0  0  0  0  0  0  0  0  0  0  0
    7.4142   -0.5321    0.0000 H   0  0  0  0  0  0  0  0  0  0  0  0
    6.0047   -0.0191    0.0000 H   0  0  0  0  0  0  0  0  0  0  0  0
    4.1552   -0.7476    0.0000 H   0  0  0  0  0  0  0  0  0  0  0  0
    4.1398   -4.0816    0.0000 H   0  0  0  0  0  0  0  0  0  0  0  0
    3.9065   -0.8635    0.0000 H   0  0  0  0  0  0  0  0  0  0  0  0
    2.7302   -3.5686    0.0000 H   0  0  0  0  0  0  0  0  0  0  0  0
    2.8406   -0.4756    0.0000 H   0  0  0  0  0  0  0  0  0  0  0  0
    1.6465   -3.2216    0.0000 H   0  0  0  0  0  0  0  0  0  0  0  0
    0.6715   -2.7970    0.0000 H   0  0  0  0  0  0  0  0  0  0  0  0
    2.9888    0.1828    0.0000 H   0  0  0  0  0  0  0  0  0  0  0  0
    0.4895    2.7762    0.0000 H   0  0  0  0  0  0  0  0  0  0  0  0
    2.1595    1.8121    0.0000 H   0  0  0  0  0  0  0  0  0  0  0  0
   -0.4895    2.7762    0.0000 H   0  0  0  0  0  0  0  0  0  0  0  0
   -1.6465    3.2216    0.0000 H   0  0  0  0  0  0  0  0  0  0  0  0
   -2.8406    0.4756    0.0000 H   0  0  0  0  0  0  0  0  0  0  0  0
   -4.9786    2.8381    0.0000 H   0  0  0  0  0  0  0  0  0  0  0  0
   -3.0560    3.7346    0.0000 H   0  0  0  0  0  0  0  0  0  0  0  0
   -4.0821    0.9156    0.0000 H   0  0  0  0  0  0  0  0  0  0  0  0
   -2.6491   -0.9642    0.0000 H   0  0  0  0  0  0  0  0  0  0  0  0
   -2.7580    0.8169    0.0000 H   0  0  0  0  0  0  0  0  0  0  0  0
   -2.1595   -1.8121    0.0000 H   0  0  0  0  0  0  0  0  0  0  0  0
   -0.2291   -4.2535    0.0000 H   0  0  0  0  0  0  0  0  0  0  0  0
   -1.9667   -3.0367    0.0000 H   0  0  0  0  0  0  0  0  0  0  0  0
    1.0084   -2.6978    0.0000 H   0  0  0  0  0  0  0  0  0  0  0  0
    7.7246   -4.0322    0.0000 H   0  0  0  0  0  0  0  0  0  0  0  0
    7.2847   -5.2737    0.0000 H   0  0  0  0  0  0  0  0  0  0  0  0
    4.8491   -7.5798    0.0000 H   0  0  0  0  0  0  0  0  0  0  0  0
    3.8703   -6.0135    0.0000 H   0  0  0  0  0  0  0  0  0  0  0  0
    6.8237   -6.5076    0.0000 H   0  0  0  0  0  0  0  0  0  0  0  0
    3.6267   -5.4912    0.0000 H   0  0  0  0  0  0  0  0  0  0  0  0
    3.9526   -5.6572    0.0000 H   0  0  0  0  0  0  0  0  0  0  0  0
    2.1324   -2.5527    0.0000 H   0  0  0  0  0  0  0  0  0  0  0  0
  1  2  2  3
  2  3  1  0
  3  4  1  0
  4  5  1  0
  5  6  1  0
  6  7  2  3
  7  8  1  0
  4  9  1  0
  9 10  1  0
 10 11  1  0
 11 12  1  0
 12 13  1  0
 13 14  1  0
 14 15  1  0
 15 16  1  0
 16 17  1  0
 17 18  1  0
 18 19  1  0
 19 20  1  0
 20 21  1  0
 21 22  1  0
 22 23  1  0
 21 24  1  0
 24 25  1  0
 25 26  1  0
 15 27  1  0
 27 28  1  0
 28 29  1  0
 28 30  1  0
 30 31  1  0
 31 32  2  0
 27 13  1  0
 25 18  1  0
  1 33  1  0
  1 34  1  0
  2 35  1  0
  3 36  1  0
  3 37  1  0
  4 38  1  1
  5 39  1  0
  5 40  1  0
  6 41  1  0
  7 42  1  0
  8 43  1  0
  8 44  1  0
  8 45  1  0
  9 46  1  0
  9 47  1  0
 10 48  1  0
 10 49  1  0
 11 50  1  0
 12 51  1  0
 12 52  1  0
 13 53  1  6
 14 54  1  0
 14 55  1  0
 15 56  1  1
 16 57  1  0
 16 58  1  0
 17 59  1  0
 17 60  1  0
 18 61  1  6
 19 62  1  0
 20 63  1  0
 20 64  1  0
 21 65  1  6
 22 66  1  0
 22 67  1  0
 23 68  1  0
 23 69  1  0
 23 70  1  0
 24 71  1  0
 24 72  1  0
 25 73  1  1
 26 74  1  0
 26 75  1  0
 26 76  1  0
 27 77  1  6
 28 78  1  1
 29 79  1  0
 29 80  1  0
 29 81  1  0
 30 82  1  0
 30 83  1  0
 31 84  1  0
M  END
$$$$
