
     RDKit          2D

 57 68  0  0  0  0  0  0  0  0999 V2000
   -0.4330    5.2500    0.0000 C   0  0  0  0  0  0  0  0  0  0  0  0
   -0.4330    3.7500    0.0000 C   0  0  0  0  0  0  0  0  0  0  0  0
   -0.4330    2.2500    0.0000 C   0  0  0  0  0  0  0  0  0  0  0  0
   -0.4330    0.7500    0.0000 C   0  0  0  0  0  0  0  0  0  0  0  0
    0.8660    0.0000    0.0000 C   0  0  0  0  0  0  0  0  0  0  0  0
    1.8302    1.1491    0.0000 C   0  0  0  0  0  0  0  0  0  0  0  0
   -0.4330   -0.7500    0.0000 N   0  0  0  0  0  0  0  0  0  0  0  0
   -1.7321    0.0000    0.0000 C   0  0  0  0  0  0  0  0  0  0  0  0
   -2.3829   -1.3515    0.0000 C   0  0  0  0  0  0  0  0  0  0  0  0
   -3.8453   -1.6852    0.0000 C   0  0  0  0  0  0  0  0  0  0  0  0
   -5.0180   -0.7500    0.0000 C   0  0  0  0  0  0  0  0  0  0  0  0
   -5.0180    0.7500    0.0000 N   0  0  0  0  0  2  0  0  0  0  0  0
   -3.8453    1.6852    0.0000 C   0  0  0  0  0  0  0  0  0  0  0  0
   -2.3829    1.3515    0.0000 N   0  0  0  0  0  2  0  0  0  0  0  0
   -4.6371    2.9592    0.0000 N   0  0  0  0  0  0  0  0  0  0  0  0
   -4.0101    4.3219    0.0000 C   0  0  0  0  0  0  0  0  0  0  0  0
   -4.6845    5.6617    0.0000 C   0  0  0  0  0  0  0  0  0  0  0  0
   -6.1526    5.9698    0.0000 C   0  0  0  0  0  0  0  0  0  0  0  0
   -7.3087    5.0141    0.0000 C   0  0  0  0  0  0  0  0  0  0  0  0
   -8.8023    4.8758    0.0000 C   0  0  0  0  0  0  0  0  0  0  0  0
   -8.1753    6.2384    0.0000 C   0  0  0  0  0  0  0  0  0  0  0  0
   -7.2824    3.5143    0.0000 N   0  0  0  0  0  0  0  0  0  0  0  0
   -6.0934    2.5998    0.0000 C   0  0  0  0  0  0  0  0  0  0  0  0
   -7.4432    1.9455    0.0000 N   0  0  0  0  0  0  0  0  0  0  0  0
   -6.2016    1.1037    0.0000 C   0  0  0  0  0  0  0  0  0  0  0  0
   -7.3496   -2.4708    0.0000 C   0  0  0  0  0  0  0  0  0  0  0  0
   -6.1768   -3.4060    0.0000 C   0  0  0  0  0  0  0  0  0  0  0  0
   -5.2416   -2.2332    0.0000 C   0  0  0  0  0  0  0  0  0  0  0  0
   -6.4143   -1.2980    0.0000 C   0  0  0  0  0  0  0  0  0  0  0  0
   -0.4330    6.7500    0.0000 H   0  0  0  0  0  0  0  0  0  0  0  0
   -1.7830    5.2500    0.0000 H   0  0  0  0  0  0  0  0  0  0  0  0
    1.0670    5.2500    0.0000 H   0  0  0  0  0  0  0  0  0  0  0  0
    1.0670    3.7500    0.0000 H   0  0  0  0  0  0  0  0  0  0  0  0
   -1.9330    3.7500    0.0000 H   0  0  0  0  0  0  0  0  0  0  0  0
    0.4461    2.3580    0.0000 H   0  0  0  0  0  0  0  0  0  0  0  0
   -1.9330    2.2500    0.0000 H   0  0  0  0  0  0  0  0  0  0  0  0
    1.8302   -1.1491    0.0000 H   0  0  0  0  0  0  0  0  0  0  0  0
    2.7944    2.2981    0.0000 H   0  0  0  0  0  0  0  0  0  0  0  0
    1.2262    1.7969    0.0000 H   0  0  0  0  0  0  0  0  0  0  0  0
    2.9793    0.1849    0.0000 H   0  0  0  0  0  0  0  0  0  0  0  0
   -0.9205   -1.6852    0.0000 H   0  0  0  0  0  0  0  0  0  0  0  0
   -2.3829   -2.8515    0.0000 H   0  0  0  0  0  0  0  0  0  0  0  0
   -3.4031   -3.1186    0.0000 H   0  0  0  0  0  0  0  0  0  0  0  0
   -2.8211    3.4074    0.0000 H   0  0  0  0  0  0  0  0  0  0  0  0
   -2.8725    5.0487    0.0000 H   0  0  0  0  0  0  0  0  0  0  0  0
   -3.2829    6.1959    0.0000 H   0  0  0  0  0  0  0  0  0  0  0  0
   -4.5278    7.1535    0.0000 H   0  0  0  0  0  0  0  0  0  0  0  0
   -5.6963    7.3987    0.0000 H   0  0  0  0  0  0  0  0  0  0  0  0
   -6.7836    6.5913    0.0000 H   0  0  0  0  0  0  0  0  0  0  0  0
   -8.9255    3.3808    0.0000 H   0  0  0  0  0  0  0  0  0  0  0  0
  -10.2532    5.2566    0.0000 H   0  0  0  0  0  0  0  0  0  0  0  0
   -9.4084    7.0925    0.0000 H   0  0  0  0  0  0  0  0  0  0  0  0
   -7.6336    6.9392    0.0000 H   0  0  0  0  0  0  0  0  0  0  0  0
   -8.9393    2.0537    0.0000 H   0  0  0  0  0  0  0  0  0  0  0  0
   -5.0041   -4.3412    0.0000 H   0  0  0  0  0  0  0  0  0  0  0  0
   -7.1120   -4.5787    0.0000 H   0  0  0  0  0  0  0  0  0  0  0  0
   -7.3051   -0.0911    0.0000 H   0  0  0  0  0  0  0  0  0  0  0  0
  1  2  1  0
  2  3  1  0
  4  3  1  1
  4  5  1  0
  5  6  1  0
  5  7  1  0
  7  8  1  0
  8  9  1  0
  9 10  1  0
 10 11  1  0
 11 12  1  6
 12 13  1  0
 13 14  1  6
 13 15  1  0
 15 16  1  0
 16 17  1  0
 17 18  1  0
 18 19  1  0
 19 20  1  0
 20 21  1  0
 19 22  1  0
 22 23  1  0
 23 24  1  1
 25 24  1  6
 25 26  1  0
 26 27  1  6
 28 27  1  1
 28 29  1  0
  7  4  1  0
  8 14  1  6
 23 15  1  0
 29 26  1  0
  8  4  1  0
 28 10  1  0
 28 11  1  0
 29 11  1  0
 26 13  1  0
 21 19  1  0
 25 22  1  0
 25 23  1  0
  1 30  1  0
  1 31  1  0
  1 32  1  0
  2 33  1  0
  2 34  1  0
  3 35  1  0
  3 36  1  0
  5 37  1  6
  6 38  1  0
  6 39  1  0
  6 40  1  0
  9 41  1  0
  9 42  1  0
 10 43  1  6
 16 44  1  0
 16 45  1  0
 17 46  1  0
 17 47  1  0
 18 48  1  0
 18 49  1  0
 20 50  1  0
 20 51  1  0
 21 52  1  0
 21 53  1  0
 24 54  1  0
 27 55  1  0
 27 56  1  0
 29 57  1  6
M  RAD  2  12   2  14   2
M  END
$$$$
