
     RDKit          2D

 60 65  0  0  0  0  0  0  0  0999 V2000
  -11.1785    0.1610    0.0000 C   0  0  0  0  0  0  0  0  0  0  0  0
  -10.2235   -0.9957    0.0000 C   0  0  0  0  0  0  0  0  0  0  0  0
   -9.2684   -2.1524    0.0000 N   0  0  0  0  0  0  0  0  0  0  0  0
   -7.7892   -1.9037    0.0000 C   0  0  0  0  0  0  0  0  0  0  0  0
   -6.3100   -1.6549    0.0000 C   0  0  0  0  0  0  0  0  0  0  0  0
   -6.0612   -3.1341    0.0000 O   0  0  0  0  0  0  0  0  0  0  0  0
   -4.8307   -1.4062    0.0000 C   0  0  0  0  0  0  0  0  0  0  0  0
   -4.9377   -2.9023    0.0000 C   0  0  0  0  0  0  0  0  0  0  0  0
   -4.2189   -4.2189    0.0000 C   0  0  0  0  0  0  0  0  0  0  0  0
   -2.9023   -4.9377    0.0000 C   0  0  0  0  0  0  0  0  0  0  0  0
   -2.4456   -6.3665    0.0000 C   0  0  0  0  0  0  0  0  0  0  0  0
   -3.9113   -6.0477    0.0000 C   0  0  0  0  0  0  0  0  0  0  0  0
   -1.4062   -4.8307    0.0000 C   0  0  0  0  0  0  0  0  0  0  0  0
   -1.2281   -6.3201    0.0000 C   0  0  0  0  0  0  0  0  0  0  0  0
   -2.4289   -7.2190    0.0000 C   0  0  0  0  0  0  0  0  0  0  0  0
    0.1508   -6.9106    0.0000 C   0  0  0  0  0  0  0  0  0  0  0  0
    1.3516   -6.0117    0.0000 C   0  0  0  0  0  0  0  0  0  0  0  0
    1.1735   -4.5223    0.0000 C   0  0  0  0  0  0  0  0  0  0  0  0
   -0.2053   -3.9318    0.0000 C   0  0  0  0  0  0  0  0  0  0  0  0
    0.3188   -2.5264    0.0000 C   0  0  0  0  0  0  0  0  0  0  0  0
   -0.0000   -1.0607    0.0000 C   0  0  0  0  0  0  0  0  0  0  0  0
    1.0607    0.0000    0.0000 S   0  0  0  0  0  0  0  0  0  0  0  0
    0.0000    1.0607    0.0000 C   0  0  0  0  0  0  0  0  0  0  0  0
   -1.0607    0.0000    0.0000 C   0  0  0  0  0  0  0  0  0  0  0  0
   -2.5264    0.3188    0.0000 C   0  0  0  0  0  0  0  0  0  0  0  0
   -3.9318   -0.2053    0.0000 C   0  0  0  0  0  0  0  0  0  0  0  0
   -5.4212   -0.0273    0.0000 C   0  0  0  0  0  0  0  0  0  0  0  0
   -6.6220    0.8716    0.0000 Cl  0  0  0  0  0  0  0  0  0  0  0  0
  -12.1335    1.3176    0.0000 H   0  0  0  0  0  0  0  0  0  0  0  0
  -12.3352   -0.7941    0.0000 H   0  0  0  0  0  0  0  0  0  0  0  0
  -10.0218    1.1160    0.0000 H   0  0  0  0  0  0  0  0  0  0  0  0
   -9.0668   -0.0407    0.0000 H   0  0  0  0  0  0  0  0  0  0  0  0
  -11.3801   -1.9508    0.0000 H   0  0  0  0  0  0  0  0  0  0  0  0
   -9.7926   -3.5578    0.0000 H   0  0  0  0  0  0  0  0  0  0  0  0
   -7.7226   -3.4022    0.0000 H   0  0  0  0  0  0  0  0  0  0  0  0
   -8.0379   -0.4244    0.0000 H   0  0  0  0  0  0  0  0  0  0  0  0
   -6.5587   -0.1757    0.0000 H   0  0  0  0  0  0  0  0  0  0  0  0
   -7.0928   -4.2230    0.0000 H   0  0  0  0  0  0  0  0  0  0  0  0
   -5.7321   -2.9694    0.0000 H   0  0  0  0  0  0  0  0  0  0  0  0
   -5.8039   -4.1270    0.0000 H   0  0  0  0  0  0  0  0  0  0  0  0
   -5.6567   -4.6461    0.0000 H   0  0  0  0  0  0  0  0  0  0  0  0
   -4.9813   -5.5106    0.0000 H   0  0  0  0  0  0  0  0  0  0  0  0
   -0.9546   -6.5305    0.0000 H   0  0  0  0  0  0  0  0  0  0  0  0
   -2.8660   -7.8064    0.0000 H   0  0  0  0  0  0  0  0  0  0  0  0
   -4.4799   -7.4357    0.0000 H   0  0  0  0  0  0  0  0  0  0  0  0
   -5.2678   -5.4073    0.0000 H   0  0  0  0  0  0  0  0  0  0  0  0
   -3.6297   -8.1179    0.0000 H   0  0  0  0  0  0  0  0  0  0  0  0
   -1.5300   -8.4198    0.0000 H   0  0  0  0  0  0  0  0  0  0  0  0
   -3.5917   -6.2714    0.0000 H   0  0  0  0  0  0  0  0  0  0  0  0
    0.3289   -8.4000    0.0000 H   0  0  0  0  0  0  0  0  0  0  0  0
    2.7305   -6.6021    0.0000 H   0  0  0  0  0  0  0  0  0  0  0  0
    2.4750   -3.7764    0.0000 H   0  0  0  0  0  0  0  0  0  0  0  0
    1.5833   -3.3333    0.0000 H   0  0  0  0  0  0  0  0  0  0  0  0
    1.5997   -1.7457    0.0000 H   0  0  0  0  0  0  0  0  0  0  0  0
   -0.7583    0.2336    0.0000 H   0  0  0  0  0  0  0  0  0  0  0  0
   -0.9235    2.2427    0.0000 H   0  0  0  0  0  0  0  0  0  0  0  0
    1.0607    2.1213    0.0000 H   0  0  0  0  0  0  0  0  0  0  0  0
   -1.6555    1.3770    0.0000 H   0  0  0  0  0  0  0  0  0  0  0  0
   -2.6334    1.8150    0.0000 H   0  0  0  0  0  0  0  0  0  0  0  0
   -4.1099    1.2840    0.0000 H   0  0  0  0  0  0  0  0  0  0  0  0
  1  2  1  0
  2  3  1  0
  3  4  1  0
  4  5  1  0
  5  6  1  0
  5  7  1  0
  7  8  1  0
  8  9  1  0
  9 10  1  0
 10 11  1  0
 11 12  1  0
 10 13  1  0
 13 14  2  0
 14 15  1  0
 14 16  1  0
 16 17  2  0
 17 18  1  0
 18 19  2  0
 19 20  1  0
 20 21  1  0
 21 22  1  0
 22 23  1  0
 23 24  1  0
 24 25  1  0
 25 26  1  0
 26 27  1  0
 27 28  1  0
 26  7  1  0
 27  7  1  0
 12 10  1  0
 19 13  1  0
 24 21  1  0
 27 25  1  0
  1 29  1  0
  1 30  1  0
  1 31  1  0
  2 32  1  0
  2 33  1  0
  3 34  1  0
  4 35  1  0
  4 36  1  0
  5 37  1  0
  6 38  1  0
  8 39  1  0
  8 40  1  0
  9 41  1  0
  9 42  1  0
 11 43  1  0
 11 44  1  0
 12 45  1  0
 12 46  1  0
 15 47  1  0
 15 48  1  0
 15 49  1  0
 16 50  1  0
 17 51  1  0
 18 52  1  0
 20 53  1  0
 20 54  1  0
 21 55  1  0
 23 56  1  0
 23 57  1  0
 24 58  1  0
 25 59  1  0
 26 60  1  0
M  END
$$$$
