
     RDKit          2D

 57 62  0  0  0  0  0  0  0  0999 V2000
    2.7944    2.2981    0.0000 C   0  0  0  0  0  0  0  0  0  0  0  0
    1.8302    1.1491    0.0000 C   0  0  0  0  0  0  0  0  0  0  0  0
    2.9793    0.1849    0.0000 N   0  0  0  0  0  0  0  0  0  0  0  0
    0.8660    0.0000    0.0000 C   0  0  0  0  0  0  0  0  0  0  0  0
   -0.4330    0.7500    0.0000 C   0  0  0  0  0  0  0  0  0  0  0  0
   -1.9102    1.0105    0.0000 C   0  0  0  0  0  0  0  0  0  0  0  0
    0.0800    2.1595    0.0000 C   0  0  0  0  0  0  0  0  0  0  0  0
    0.5930    3.5691    0.0000 N   0  0  0  0  0  0  0  0  0  0  0  0
   -0.3711    4.7181    0.0000 C   0  0  0  0  0  0  0  0  0  0  0  0
   -1.5202    3.7540    0.0000 C   0  0  0  0  0  0  0  0  0  0  0  0
    0.7779    5.6823    0.0000 C   0  0  0  0  0  0  0  0  0  0  0  0
   -1.3353    5.8672    0.0000 S   0  0  0  0  0  0  0  0  0  0  0  0
   -0.4330   -0.7500    0.0000 C   0  0  0  0  0  0  0  0  0  0  0  0
   -1.7321   -1.5000    0.0000 C   0  0  0  0  0  0  0  0  0  0  0  0
   -0.4330   -2.2500    0.0000 C   0  0  0  0  0  0  0  0  0  0  0  0
   -1.1830   -3.5490    0.0000 C   0  0  0  0  0  0  0  0  0  0  0  0
   -0.1224   -4.6097    0.0000 C   0  0  0  0  0  0  0  0  0  0  0  0
   -1.1830   -5.6704    0.0000 C   0  0  0  0  0  0  0  0  0  0  0  0
   -0.1224   -6.7310    0.0000 C   0  0  0  0  0  0  0  0  0  0  0  0
    0.9383   -5.6704    0.0000 C   0  0  0  0  0  0  0  0  0  0  0  0
    1.9990   -4.6097    0.0000 N   0  0  0  0  0  0  0  0  0  0  0  0
   -2.4821   -4.2990    0.0000 C   0  0  0  0  0  0  0  0  0  0  0  0
   -3.7811   -3.5490    0.0000 C   0  0  0  0  0  0  0  0  0  0  0  0
   -2.4821   -2.7990    0.0000 C   0  0  0  0  0  0  0  0  0  0  0  0
    3.7586    3.4472    0.0000 H   0  0  0  0  0  0  0  0  0  0  0  0
    1.7714    3.3952    0.0000 H   0  0  0  0  0  0  0  0  0  0  0  0
    4.0524    1.4812    0.0000 H   0  0  0  0  0  0  0  0  0  0  0  0
    1.3617    1.7940    0.0000 H   0  0  0  0  0  0  0  0  0  0  0  0
    4.4408    0.5223    0.0000 H   0  0  0  0  0  0  0  0  0  0  0  0
    2.9008   -1.3131    0.0000 H   0  0  0  0  0  0  0  0  0  0  0  0
    1.6830   -1.2580    0.0000 H   0  0  0  0  0  0  0  0  0  0  0  0
   -3.3874    1.2709    0.0000 H   0  0  0  0  0  0  0  0  0  0  0  0
   -1.8530    2.1025    0.0000 H   0  0  0  0  0  0  0  0  0  0  0  0
   -2.3488   -0.4240    0.0000 H   0  0  0  0  0  0  0  0  0  0  0  0
   -0.9475    2.5335    0.0000 H   0  0  0  0  0  0  0  0  0  0  0  0
    0.8728    2.0763    0.0000 H   0  0  0  0  0  0  0  0  0  0  0  0
    2.0703    3.8296    0.0000 H   0  0  0  0  0  0  0  0  0  0  0  0
   -2.6693    2.7898    0.0000 H   0  0  0  0  0  0  0  0  0  0  0  0
   -2.4844    4.9030    0.0000 H   0  0  0  0  0  0  0  0  0  0  0  0
   -1.0320    2.3356    0.0000 H   0  0  0  0  0  0  0  0  0  0  0  0
    1.9270    6.6465    0.0000 H   0  0  0  0  0  0  0  0  0  0  0  0
   -0.0390    6.9404    0.0000 H   0  0  0  0  0  0  0  0  0  0  0  0
    1.8750    4.6594    0.0000 H   0  0  0  0  0  0  0  0  0  0  0  0
   -0.9979    7.3288    0.0000 H   0  0  0  0  0  0  0  0  0  0  0  0
   -2.9141   -0.5765    0.0000 H   0  0  0  0  0  0  0  0  0  0  0  0
    1.0524   -2.4587    0.0000 H   0  0  0  0  0  0  0  0  0  0  0  0
    0.8011   -3.4277    0.0000 H   0  0  0  0  0  0  0  0  0  0  0  0
   -2.2437   -6.7310    0.0000 H   0  0  0  0  0  0  0  0  0  0  0  0
   -2.4688   -4.8979    0.0000 H   0  0  0  0  0  0  0  0  0  0  0  0
    0.9383   -7.7917    0.0000 H   0  0  0  0  0  0  0  0  0  0  0  0
   -1.1830   -7.7917    0.0000 H   0  0  0  0  0  0  0  0  0  0  0  0
    1.9990   -6.7310    0.0000 H   0  0  0  0  0  0  0  0  0  0  0  0
    3.4479   -4.9979    0.0000 H   0  0  0  0  0  0  0  0  0  0  0  0
    1.9729   -3.1099    0.0000 H   0  0  0  0  0  0  0  0  0  0  0  0
   -2.4821   -5.7990    0.0000 H   0  0  0  0  0  0  0  0  0  0  0  0
   -4.7453   -4.6981    0.0000 H   0  0  0  0  0  0  0  0  0  0  0  0
   -4.7453   -2.4000    0.0000 H   0  0  0  0  0  0  0  0  0  0  0  0
  1  2  1  0
  2  3  1  0
  2  4  1  0
  4  5  1  0
  5  6  1  0
  5  7  1  0
  7  8  1  0
  8  9  1  0
  9 10  1  0
  9 11  1  0
  9 12  1  0
  5 13  1  0
 13 14  1  0
 14 15  1  0
 15 16  1  0
 16 17  1  0
 17 18  1  0
 18 19  1  0
 19 20  1  0
 20 21  1  0
 16 22  1  0
 22 23  1  0
 23 24  1  0
 13  4  1  0
 24 14  1  0
 15 13  1  0
 24 16  1  0
 20 17  1  0
 24 22  1  0
  1 25  1  0
  1 26  1  0
  1 27  1  0
  2 28  1  0
  3 29  1  0
  3 30  1  0
  4 31  1  0
  6 32  1  0
  6 33  1  0
  6 34  1  0
  7 35  1  0
  7 36  1  0
  8 37  1  0
 10 38  1  0
 10 39  1  0
 10 40  1  0
 11 41  1  0
 11 42  1  0
 11 43  1  0
 12 44  1  0
 14 45  1  0
 15 46  1  0
 17 47  1  0
 18 48  1  0
 18 49  1  0
 19 50  1  0
 19 51  1  0
 20 52  1  0
 21 53  1  0
 21 54  1  0
 22 55  1  0
 23 56  1  0
 23 57  1  0
M  END
$$$$
