
     RDKit          2D

 95 98  0  0  0  0  0  0  0  0999 V2000
   -5.7113  -13.0942    0.0000 C   0  0  0  0  0  0  0  0  0  0  0  0
   -5.4626  -11.6150    0.0000 C   0  0  0  0  0  0  0  0  0  0  0  0
   -5.2138  -10.1358    0.0000 C   0  0  0  0  0  0  0  0  0  0  0  0
   -4.9651   -8.6566    0.0000 C   0  0  0  0  0  0  0  0  0  0  0  0
   -4.7163   -7.1773    0.0000 C   0  0  0  0  0  0  0  0  0  0  0  0
   -4.4676   -5.6981    0.0000 C   0  0  0  0  0  0  0  0  0  0  0  0
   -4.2189   -4.2189    0.0000 C   0  0  0  0  0  0  0  0  0  0  0  0
   -2.9023   -4.9377    0.0000 C   0  0  0  0  0  0  0  0  0  0  0  0
   -1.4062   -4.8307    0.0000 C   0  0  0  0  0  0  0  0  0  0  0  0
   -0.2053   -3.9318    0.0000 C   0  0  0  0  0  0  0  0  0  0  0  0
    0.3188   -2.5264    0.0000 C   0  0  0  0  0  0  0  0  0  0  0  0
   -0.0000   -1.0607    0.0000 C   0  0  0  0  0  0  0  0  0  0  0  0
    1.0607    0.0000    0.0000 C   0  0  0  0  0  0  0  0  0  0  0  0
    0.0000    1.0607    0.0000 C   0  0  0  0  0  0  0  0  0  0  0  0
   -1.0607    2.1213    0.0000 C   0  0  0  0  0  0  0  0  0  0  0  0
   -1.6946    3.4808    0.0000 N   0  0  0  0  0  0  0  0  0  0  0  0
   -0.2003    3.3500    0.0000 C   0  0  0  0  0  0  0  0  0  0  0  0
    0.1879    4.7989    0.0000 C   0  0  0  0  0  0  0  0  0  0  0  0
    0.5762    6.2478    0.0000 C   0  0  0  0  0  0  0  0  0  0  0  0
    0.9644    7.6967    0.0000 C   0  0  0  0  0  0  0  0  0  0  0  0
   -0.8727    6.6361    0.0000 C   0  0  0  0  0  0  0  0  0  0  0  0
   -2.3216    7.0243    0.0000 C   0  0  0  0  0  0  0  0  0  0  0  0
   -3.7705    7.4125    0.0000 C   0  0  0  0  0  0  0  0  0  0  0  0
   -5.2194    7.8007    0.0000 C   0  0  0  0  0  0  0  0  0  0  0  0
   -3.3823    8.8614    0.0000 C   0  0  0  0  0  0  0  0  0  0  0  0
   -2.9940   10.3103    0.0000 C   0  0  0  0  0  0  0  0  0  0  0  0
   -4.4429   10.6985    0.0000 C   0  0  0  0  0  0  0  0  0  0  0  0
   -4.0547   12.1474    0.0000 C   0  0  0  0  0  0  0  0  0  0  0  0
   -2.6058   11.7592    0.0000 C   0  0  0  0  0  0  0  0  0  0  0  0
   -1.0607    0.0000    0.0000 C   0  0  0  0  0  0  0  0  0  0  0  0
   -2.5264    0.3188    0.0000 C   0  0  0  0  0  0  0  0  0  0  0  0
   -3.9318   -0.2053    0.0000 C   0  0  0  0  0  0  0  0  0  0  0  0
   -4.8307   -1.4062    0.0000 C   0  0  0  0  0  0  0  0  0  0  0  0
   -4.9377   -2.9023    0.0000 C   0  0  0  0  0  0  0  0  0  0  0  0
   -5.9601  -14.5735    0.0000 H   0  0  0  0  0  0  0  0  0  0  0  0
   -7.1906  -12.8455    0.0000 H   0  0  0  0  0  0  0  0  0  0  0  0
   -4.2321  -13.3430    0.0000 H   0  0  0  0  0  0  0  0  0  0  0  0
   -6.9418  -11.3663    0.0000 H   0  0  0  0  0  0  0  0  0  0  0  0
   -3.9834  -11.8638    0.0000 H   0  0  0  0  0  0  0  0  0  0  0  0
   -3.7346  -10.3845    0.0000 H   0  0  0  0  0  0  0  0  0  0  0  0
   -6.6931   -9.8870    0.0000 H   0  0  0  0  0  0  0  0  0  0  0  0
   -6.4443   -8.4078    0.0000 H   0  0  0  0  0  0  0  0  0  0  0  0
   -3.4859   -8.9053    0.0000 H   0  0  0  0  0  0  0  0  0  0  0  0
   -3.2371   -7.4261    0.0000 H   0  0  0  0  0  0  0  0  0  0  0  0
   -6.1956   -6.9286    0.0000 H   0  0  0  0  0  0  0  0  0  0  0  0
   -3.7035   -5.9251    0.0000 H   0  0  0  0  0  0  0  0  0  0  0  0
   -5.7989   -5.4742    0.0000 H   0  0  0  0  0  0  0  0  0  0  0  0
   -5.5129   -4.6033    0.0000 H   0  0  0  0  0  0  0  0  0  0  0  0
   -2.4719   -5.9429    0.0000 H   0  0  0  0  0  0  0  0  0  0  0  0
   -3.5094   -5.8472    0.0000 H   0  0  0  0  0  0  0  0  0  0  0  0
   -0.2757   -5.8166    0.0000 H   0  0  0  0  0  0  0  0  0  0  0  0
   -1.6149   -6.3161    0.0000 H   0  0  0  0  0  0  0  0  0  0  0  0
    1.2787   -4.1500    0.0000 H   0  0  0  0  0  0  0  0  0  0  0  0
    0.4221   -5.2943    0.0000 H   0  0  0  0  0  0  0  0  0  0  0  0
    1.6853   -1.9076    0.0000 H   0  0  0  0  0  0  0  0  0  0  0  0
    1.5833   -3.3333    0.0000 H   0  0  0  0  0  0  0  0  0  0  0  0
   -0.7583    0.2336    0.0000 H   0  0  0  0  0  0  0  0  0  0  0  0
    2.1213    1.0607    0.0000 H   0  0  0  0  0  0  0  0  0  0  0  0
    2.2427   -0.9235    0.0000 H   0  0  0  0  0  0  0  0  0  0  0  0
    1.1820    1.9841    0.0000 H   0  0  0  0  0  0  0  0  0  0  0  0
   -2.4611    1.5838    0.0000 H   0  0  0  0  0  0  0  0  0  0  0  0
   -2.9233    4.3411    0.0000 H   0  0  0  0  0  0  0  0  0  0  0  0
    1.2263    2.8866    0.0000 H   0  0  0  0  0  0  0  0  0  0  0  0
    1.6368    4.4107    0.0000 H   0  0  0  0  0  0  0  0  0  0  0  0
   -1.2975    5.0077    0.0000 H   0  0  0  0  0  0  0  0  0  0  0  0
    2.0251    5.8596    0.0000 H   0  0  0  0  0  0  0  0  0  0  0  0
    1.3526    9.1456    0.0000 H   0  0  0  0  0  0  0  0  0  0  0  0
    2.4133    7.3085    0.0000 H   0  0  0  0  0  0  0  0  0  0  0  0
   -0.4264    8.2587    0.0000 H   0  0  0  0  0  0  0  0  0  0  0  0
   -0.6640    8.1215    0.0000 H   0  0  0  0  0  0  0  0  0  0  0  0
   -1.4347    5.2453    0.0000 H   0  0  0  0  0  0  0  0  0  0  0  0
   -1.7597    8.4150    0.0000 H   0  0  0  0  0  0  0  0  0  0  0  0
   -2.7098    5.5754    0.0000 H   0  0  0  0  0  0  0  0  0  0  0  0
   -4.1587    5.9636    0.0000 H   0  0  0  0  0  0  0  0  0  0  0  0
   -6.6683    8.1890    0.0000 H   0  0  0  0  0  0  0  0  0  0  0  0
   -5.6076    6.3519    0.0000 H   0  0  0  0  0  0  0  0  0  0  0  0
   -5.0107    9.2861    0.0000 H   0  0  0  0  0  0  0  0  0  0  0  0
   -4.7730    9.4233    0.0000 H   0  0  0  0  0  0  0  0  0  0  0  0
   -1.8969    8.6527    0.0000 H   0  0  0  0  0  0  0  0  0  0  0  0
   -1.5452    9.9221    0.0000 H   0  0  0  0  0  0  0  0  0  0  0  0
   -5.8918   11.0867    0.0000 H   0  0  0  0  0  0  0  0  0  0  0  0
   -4.4168   12.1983    0.0000 H   0  0  0  0  0  0  0  0  0  0  0  0
   -3.6665   13.5963    0.0000 H   0  0  0  0  0  0  0  0  0  0  0  0
   -5.5036   12.5356    0.0000 H   0  0  0  0  0  0  0  0  0  0  0  0
   -1.1569   11.3709    0.0000 H   0  0  0  0  0  0  0  0  0  0  0  0
   -2.2176   13.2081    0.0000 H   0  0  0  0  0  0  0  0  0  0  0  0
   -1.4833    1.4392    0.0000 H   0  0  0  0  0  0  0  0  0  0  0  0
   -3.3333    1.5833    0.0000 H   0  0  0  0  0  0  0  0  0  0  0  0
   -2.0788    1.7505    0.0000 H   0  0  0  0  0  0  0  0  0  0  0  0
   -5.2943    0.4221    0.0000 H   0  0  0  0  0  0  0  0  0  0  0  0
   -4.1500    1.2787    0.0000 H   0  0  0  0  0  0  0  0  0  0  0  0
   -6.3161   -1.6149    0.0000 H   0  0  0  0  0  0  0  0  0  0  0  0
   -5.8166   -0.2757    0.0000 H   0  0  0  0  0  0  0  0  0  0  0  0
   -6.0745   -3.8810    0.0000 H   0  0  0  0  0  0  0  0  0  0  0  0
   -6.3783   -2.4843    0.0000 H   0  0  0  0  0  0  0  0  0  0  0  0
  1  2  1  0
  2  3  1  0
  3  4  1  0
  4  5  1  0
  5  6  1  0
  6  7  1  0
  7  8  1  0
  8  9  1  0
  9 10  1  0
 10 11  1  0
 11 12  1  0
 12 13  1  0
 13 14  1  0
 14 15  1  0
 15 16  1  0
 16 17  1  0
 17 18  1  0
 18 19  1  0
 19 20  1  0
 19 21  1  0
 21 22  1  0
 22 23  1  0
 23 24  1  0
 23 25  1  0
 25 26  1  0
 26 27  1  0
 27 28  1  0
 28 29  1  0
 14 30  1  0
 30 31  1  0
 31 32  1  0
 32 33  1  0
 33 34  1  0
 34  7  1  0
 30 12  1  0
 17 15  1  0
 29 26  1  0
  1 35  1  0
  1 36  1  0
  1 37  1  0
  2 38  1  0
  2 39  1  0
  3 40  1  0
  3 41  1  0
  4 42  1  0
  4 43  1  0
  5 44  1  0
  5 45  1  0
  6 46  1  0
  6 47  1  0
  7 48  1  0
  8 49  1  0
  8 50  1  0
  9 51  1  0
  9 52  1  0
 10 53  1  0
 10 54  1  0
 11 55  1  0
 11 56  1  0
 12 57  1  0
 13 58  1  0
 13 59  1  0
 14 60  1  0
 15 61  1  0
 16 62  1  0
 17 63  1  0
 18 64  1  0
 18 65  1  0
 19 66  1  0
 20 67  1  0
 20 68  1  0
 20 69  1  0
 21 70  1  0
 21 71  1  0
 22 72  1  0
 22 73  1  0
 23 74  1  0
 24 75  1  0
 24 76  1  0
 24 77  1  0
 25 78  1  0
 25 79  1  0
 26 80  1  0
 27 81  1  0
 27 82  1  0
 28 83  1  0
 28 84  1  0
 29 85  1  0
 29 86  1  0
 30 87  1  0
 31 88  1  0
 31 89  1  0
 32 90  1  0
 32 91  1  0
 33 92  1  0
 33 93  1  0
 34 94  1  0
 34 95  1  0
M  END
$$$$
