
     RDKit          2D

 34 41  0  0  0  0  0  0  0  0999 V2000
    0.5061   -2.8211    0.0000 C   0  0  0  0  0  0  0  0  0  0  0  0
   -0.9711   -2.5607    0.0000 C   0  0  0  0  0  0  0  0  0  0  0  0
   -0.9711   -1.0607    0.0000 C   0  0  0  0  0  0  0  0  0  0  0  0
   -2.2701   -1.8107    0.0000 C   0  0  0  0  0  0  0  0  0  0  0  0
   -3.7701   -1.8107    0.0000 C   0  0  0  0  0  0  0  0  0  0  0  0
   -3.7701   -0.3107    0.0000 C   0  0  0  0  0  0  0  0  0  0  0  0
   -2.2701   -0.3107    0.0000 C   0  0  0  0  0  0  0  0  0  0  0  0
   -1.8819    1.1382    0.0000 C   0  0  0  0  0  0  0  0  0  0  0  0
   -0.4330    0.7500    0.0000 C   0  0  0  0  0  0  0  0  0  0  0  0
   -0.0448    2.1989    0.0000 N   0  0  0  0  0  0  0  0  0  0  0  0
   -1.4937    2.5871    0.0000 C   0  0  0  0  0  0  0  0  0  0  0  0
   -1.4937    4.0871    0.0000 C   0  0  0  0  0  0  0  0  0  0  0  0
   -2.7927    4.8371    0.0000 C   0  0  0  0  0  0  0  0  0  0  0  0
   -4.0917    4.0871    0.0000 C   0  0  0  0  0  0  0  0  0  0  0  0
   -2.7927    3.3371    0.0000 C   0  0  0  0  0  0  0  0  0  0  0  0
    0.8660    0.0000    0.0000 O   0  0  0  0  0  0  0  0  0  0  0  0
   -0.4330   -0.7500    0.0000 C   0  0  0  0  0  0  0  0  0  0  0  0
    0.4058   -1.9935    0.0000 Cl  0  0  0  0  0  0  0  0  0  0  0  0
    1.9833   -3.0816    0.0000 H   0  0  0  0  0  0  0  0  0  0  0  0
    0.2456   -4.2983    0.0000 H   0  0  0  0  0  0  0  0  0  0  0  0
    0.7666   -1.3439    0.0000 H   0  0  0  0  0  0  0  0  0  0  0  0
   -1.4841   -3.9702    0.0000 H   0  0  0  0  0  0  0  0  0  0  0  0
    0.4708   -0.6473    0.0000 H   0  0  0  0  0  0  0  0  0  0  0  0
   -5.2701   -1.8107    0.0000 H   0  0  0  0  0  0  0  0  0  0  0  0
   -3.7701   -3.3107    0.0000 H   0  0  0  0  0  0  0  0  0  0  0  0
   -3.9530    1.1782    0.0000 H   0  0  0  0  0  0  0  0  0  0  0  0
   -5.2701   -0.3107    0.0000 H   0  0  0  0  0  0  0  0  0  0  0  0
   -3.2727    1.7002    0.0000 H   0  0  0  0  0  0  0  0  0  0  0  0
    1.2543    2.9489    0.0000 H   0  0  0  0  0  0  0  0  0  0  0  0
   -0.1946    4.8371    0.0000 H   0  0  0  0  0  0  0  0  0  0  0  0
   -2.7927    6.3371    0.0000 H   0  0  0  0  0  0  0  0  0  0  0  0
   -5.0559    5.2362    0.0000 H   0  0  0  0  0  0  0  0  0  0  0  0
   -5.0559    2.9381    0.0000 H   0  0  0  0  0  0  0  0  0  0  0  0
   -1.8033   -1.3602    0.0000 H   0  0  0  0  0  0  0  0  0  0  0  0
  1  2  1  0
  2  3  1  0
  3  4  1  0
  4  5  1  0
  5  6  1  0
  6  7  1  0
  7  8  1  0
  8  9  1  0
  9 10  1  0
 10 11  1  0
 11 12  1  0
 12 13  1  0
 13 14  1  0
 14 15  1  0
  9 16  1  0
 16 17  1  0
 17 18  1  0
  4  2  1  0
 11  8  1  0
 15 12  1  0
  7  3  1  0
 17  9  1  0
  7  4  1  0
 15 11  1  0
 15 13  1  0
  1 19  1  0
  1 20  1  0
  1 21  1  0
  2 22  1  0
  3 23  1  0
  5 24  1  0
  5 25  1  0
  6 26  1  0
  6 27  1  0
  8 28  1  0
 10 29  1  0
 12 30  1  0
 13 31  1  0
 14 32  1  0
 14 33  1  0
 17 34  1  0
M  END
$$$$
