
     RDKit          2D

 93103  0  0  0  0  0  0  0  0999 V2000
   -8.4814   -1.4906    0.0000 C   0  0  0  0  0  0  0  0  0  0  0  0
   -7.0162   -1.1697    0.0000 C   0  0  0  0  0  0  0  0  0  0  0  0
   -6.8502   -2.6605    0.0000 C   0  0  0  0  0  0  0  0  0  0  0  0
   -8.3410   -2.8265    0.0000 C   0  0  0  0  0  0  0  0  0  0  0  0
   -8.1750   -4.3173    0.0000 C   0  0  0  0  0  0  0  0  0  0  0  0
   -6.6842   -4.1513    0.0000 C   0  0  0  0  0  0  0  0  0  0  0  0
   -5.5162   -1.1605    0.0000 C   0  0  0  0  0  0  0  0  0  0  0  0
   -4.6865    0.0000    0.0000 C   0  0  0  0  0  0  0  0  0  0  0  0
   -4.1734    1.4095    0.0000 C   0  0  0  0  0  0  0  0  0  0  0  0
   -2.8744    2.1595    0.0000 N   0  0  0  0  0  0  0  0  0  0  0  0
   -1.3972    1.8991    0.0000 O   0  0  0  0  0  0  0  0  0  0  0  0
   -0.4330    0.7500    0.0000 C   0  0  0  0  0  0  0  0  0  0  0  0
   -0.1527    2.2236    0.0000 C   0  0  0  0  0  0  0  0  0  0  0  0
   -0.5894    3.6586    0.0000 N   0  0  0  0  0  0  0  0  0  0  0  0
    0.4784    4.7121    0.0000 C   0  0  0  0  0  0  0  0  0  0  0  0
   -0.5751    5.7799    0.0000 N   0  0  0  0  0  0  0  0  0  0  0  0
   -1.6429    4.7264    0.0000 C   0  0  0  0  0  0  0  0  0  0  0  0
   -3.0719    5.1822    0.0000 C   0  0  0  0  0  0  0  0  0  0  0  0
   -4.5491    4.9218    0.0000 C   0  0  0  0  0  0  0  0  0  0  0  0
   -5.7361    4.0046    0.0000 C   0  0  0  0  0  0  0  0  0  0  0  0
   -6.3609    2.6410    0.0000 C   0  0  0  0  0  0  0  0  0  0  0  0
   -6.8669    4.0530    0.0000 C   0  0  0  0  0  0  0  0  0  0  0  0
   -8.2790    3.5470    0.0000 C   0  0  0  0  0  0  0  0  0  0  0  0
   -7.7730    2.1349    0.0000 C   0  0  0  0  0  0  0  0  0  0  0  0
   -7.4885    0.2540    0.0000 C   0  0  0  0  0  0  0  0  0  0  0  0
   -8.9179    0.7087    0.0000 O   0  0  0  0  0  0  0  0  0  0  0  0
   -6.2804    1.1431    0.0000 N   0  0  0  0  0  0  0  0  0  0  0  0
   -4.0361    6.3313    0.0000 C   0  0  0  0  0  0  0  0  0  0  0  0
   -3.0719    7.4804    0.0000 C   0  0  0  0  0  0  0  0  0  0  0  0
   -2.5589    8.8899    0.0000 C   0  0  0  0  0  0  0  0  0  0  0  0
   -2.8194   10.3671    0.0000 N   0  0  0  0  0  0  0  0  0  0  0  0
   -4.2966   10.1067    0.0000 C   0  0  0  0  0  0  0  0  0  0  0  0
   -4.0361    8.6294    0.0000 C   0  0  0  0  0  0  0  0  0  0  0  0
   -5.3956    7.9955    0.0000 C   0  0  0  0  0  0  0  0  0  0  0  0
   -6.7550    7.3616    0.0000 Cl  0  0  0  0  0  0  0  0  0  0  0  0
    0.8660    0.0000    0.0000 C   0  0  0  0  0  0  0  0  0  0  0  0
   -0.4330   -0.7500    0.0000 N   0  0  0  0  0  0  0  0  0  0  0  0
   -1.3972   -1.8991    0.0000 C   0  0  0  0  0  0  0  0  0  0  0  0
   -0.0199   -2.4932    0.0000 C   0  0  0  0  0  0  0  0  0  0  0  0
    1.3575   -3.0873    0.0000 C   0  0  0  0  0  0  0  0  0  0  0  0
    2.7348   -3.6814    0.0000 N   0  0  0  0  0  2  0  0  0  0  0  0
    0.7633   -4.4646    0.0000 N   0  0  0  0  0  2  0  0  0  0  0  0
   -2.8744   -2.1595    0.0000 O   0  0  0  0  0  0  0  0  0  0  0  0
   -4.1734   -1.4095    0.0000 C   0  0  0  0  0  0  0  0  0  0  0  0
   -9.9467   -1.8115    0.0000 H   0  0  0  0  0  0  0  0  0  0  0  0
   -8.5044   -2.2874    0.0000 H   0  0  0  0  0  0  0  0  0  0  0  0
   -9.1473   -0.1465    0.0000 H   0  0  0  0  0  0  0  0  0  0  0  0
   -5.3503   -2.6775    0.0000 H   0  0  0  0  0  0  0  0  0  0  0  0
   -9.8318   -2.9925    0.0000 H   0  0  0  0  0  0  0  0  0  0  0  0
   -8.8627   -1.4202    0.0000 H   0  0  0  0  0  0  0  0  0  0  0  0
   -8.0090   -5.8081    0.0000 H   0  0  0  0  0  0  0  0  0  0  0  0
   -9.6658   -4.4832    0.0000 H   0  0  0  0  0  0  0  0  0  0  0  0
   -5.1934   -3.9853    0.0000 H   0  0  0  0  0  0  0  0  0  0  0  0
   -6.5182   -5.6421    0.0000 H   0  0  0  0  0  0  0  0  0  0  0  0
   -5.4807   -2.6601    0.0000 H   0  0  0  0  0  0  0  0  0  0  0  0
   -4.1640   -1.8098    0.0000 H   0  0  0  0  0  0  0  0  0  0  0  0
   -5.6053    1.8565    0.0000 H   0  0  0  0  0  0  0  0  0  0  0  0
   -4.5194    2.8691    0.0000 H   0  0  0  0  0  0  0  0  0  0  0  0
   -3.3130    3.5940    0.0000 H   0  0  0  0  0  0  0  0  0  0  0  0
    1.2118    1.6007    0.0000 H   0  0  0  0  0  0  0  0  0  0  0  0
    1.1372    2.9892    0.0000 H   0  0  0  0  0  0  0  0  0  0  0  0
    1.5461    5.7657    0.0000 H   0  0  0  0  0  0  0  0  0  0  0  0
    1.6542    3.7808    0.0000 H   0  0  0  0  0  0  0  0  0  0  0  0
   -0.5651    7.2799    0.0000 H   0  0  0  0  0  0  0  0  0  0  0  0
   -1.8116    6.2169    0.0000 H   0  0  0  0  0  0  0  0  0  0  0  0
   -3.2947    3.6989    0.0000 H   0  0  0  0  0  0  0  0  0  0  0  0
   -5.6434    5.9477    0.0000 H   0  0  0  0  0  0  0  0  0  0  0  0
   -6.3444    5.3758    0.0000 H   0  0  0  0  0  0  0  0  0  0  0  0
   -7.1639    4.4644    0.0000 H   0  0  0  0  0  0  0  0  0  0  0  0
   -7.3729    5.4651    0.0000 H   0  0  0  0  0  0  0  0  0  0  0  0
   -5.6192    4.8857    0.0000 H   0  0  0  0  0  0  0  0  0  0  0  0
   -9.6910    3.0410    0.0000 H   0  0  0  0  0  0  0  0  0  0  0  0
   -8.7850    4.9591    0.0000 H   0  0  0  0  0  0  0  0  0  0  0  0
   -9.1850    1.6289    0.0000 H   0  0  0  0  0  0  0  0  0  0  0  0
  -10.0264   -0.3018    0.0000 H   0  0  0  0  0  0  0  0  0  0  0  0
   -5.4169    6.9174    0.0000 H   0  0  0  0  0  0  0  0  0  0  0  0
   -1.6912    6.8943    0.0000 H   0  0  0  0  0  0  0  0  0  0  0  0
   -1.0646    8.7592    0.0000 H   0  0  0  0  0  0  0  0  0  0  0  0
   -1.9590   11.5959    0.0000 H   0  0  0  0  0  0  0  0  0  0  0  0
   -5.7945   10.0282    0.0000 H   0  0  0  0  0  0  0  0  0  0  0  0
   -4.5571   11.5839    0.0000 H   0  0  0  0  0  0  0  0  0  0  0  0
   -6.1905    9.2676    0.0000 H   0  0  0  0  0  0  0  0  0  0  0  0
   -5.2911    6.4992    0.0000 H   0  0  0  0  0  0  0  0  0  0  0  0
    1.9631    1.0230    0.0000 H   0  0  0  0  0  0  0  0  0  0  0  0
    1.9631   -1.0230    0.0000 H   0  0  0  0  0  0  0  0  0  0  0  0
   -1.5713   -3.3889    0.0000 H   0  0  0  0  0  0  0  0  0  0  0  0
   -0.6140   -3.8705    0.0000 H   0  0  0  0  0  0  0  0  0  0  0  0
    0.5742   -1.1159    0.0000 H   0  0  0  0  0  0  0  0  0  0  0  0
    2.1150   -1.7927    0.0000 H   0  0  0  0  0  0  0  0  0  0  0  0
    2.9089   -5.1713    0.0000 H   0  0  0  0  0  0  0  0  0  0  0  0
    1.6591   -5.6678    0.0000 H   0  0  0  0  0  0  0  0  0  0  0  0
   -4.5194   -2.8691    0.0000 H   0  0  0  0  0  0  0  0  0  0  0  0
   -5.6053   -1.8565    0.0000 H   0  0  0  0  0  0  0  0  0  0  0  0
  1  2  1  0
  2  3  1  0
  3  4  1  0
  4  5  1  0
  5  6  1  0
  2  7  1  0
  7  8  1  0
  8  9  1  0
  9 10  1  0
 10 11  1  0
 11 12  1  0
 12 13  1  0
 13 14  1  0
 14 15  1  0
 15 16  1  0
 16 17  1  0
 17 18  1  0
 18 19  1  0
 19 20  1  0
 20 21  1  0
 21 22  1  0
 22 23  1  0
 23 24  1  0
 24 25  1  0
 25 26  1  0
 25 27  1  0
 19 28  1  0
 28 29  1  0
 29 30  1  0
 30 31  1  0
 31 32  1  0
 32 33  1  0
 33 34  1  0
 34 35  1  0
 12 36  1  0
 36 37  1  0
 37 38  1  0
 38 39  1  0
 39 40  1  0
 40 41  1  0
 40 42  1  0
 38 43  1  0
 43 44  1  0
 25  2  1  0
 33 29  1  0
  6  3  1  0
 27  8  1  0
 33 30  1  0
 44  8  1  0
 37 12  1  0
 17 14  1  0
 28 18  1  0
 24 21  1  0
 27 21  1  0
  1 45  1  0
  1 46  1  0
  1 47  1  0
  3 48  1  0
  4 49  1  0
  4 50  1  0
  5 51  1  0
  5 52  1  0
  6 53  1  0
  6 54  1  0
  7 55  1  0
  7 56  1  0
  9 57  1  0
  9 58  1  0
 10 59  1  0
 13 60  1  0
 13 61  1  0
 15 62  1  0
 15 63  1  0
 16 64  1  0
 17 65  1  0
 18 66  1  0
 19 67  1  0
 20 68  1  0
 20 69  1  0
 22 70  1  0
 22 71  1  0
 23 72  1  0
 23 73  1  0
 24 74  1  0
 26 75  1  0
 28 76  1  0
 29 77  1  0
 30 78  1  0
 31 79  1  0
 32 80  1  0
 32 81  1  0
 34 82  1  0
 34 83  1  0
 36 84  1  0
 36 85  1  0
 38 86  1  0
 39 87  1  0
 39 88  1  0
 40 89  1  0
 41 90  1  0
 42 91  1  0
 44 92  1  0
 44 93  1  0
M  RAD  2  41   2  42   2
M  END
$$$$
