
     RDKit          2D

 26 30  0  0  0  0  0  0  0  0999 V2000
    1.8302    1.1491    0.0000 F   0  0  0  0  0  0  0  0  0  0  0  0
    0.8660    0.0000    0.0000 C   0  0  0  0  0  0  0  0  0  0  0  0
   -0.4330    0.7500    0.0000 C   0  0  0  0  0  0  0  0  0  0  0  0
   -1.7321    1.5000    0.0000 N   0  0  0  0  0  0  0  0  0  0  0  0
   -3.0311    0.7500    0.0000 C   0  0  0  0  0  0  0  0  0  0  0  0
   -3.0311   -0.7500    0.0000 C   0  0  0  0  0  0  0  0  0  0  0  0
   -1.7321   -1.5000    0.0000 C   0  0  0  0  0  0  0  0  0  0  0  0
   -3.1993   -1.8119    0.0000 C   0  0  0  0  0  0  0  0  0  0  0  0
   -3.9493   -0.5128    0.0000 C   0  0  0  0  0  0  0  0  0  0  0  0
   -5.3436   -1.0659    0.0000 C   0  0  0  0  0  0  0  0  0  0  0  0
   -5.1264    0.4189    0.0000 C   0  0  0  0  0  0  0  0  0  0  0  0
   -4.2443    1.6321    0.0000 N   0  0  0  0  0  0  0  0  0  0  0  0
   -0.4330   -0.7500    0.0000 C   0  0  0  0  0  0  0  0  0  0  0  0
    1.8302   -1.1491    0.0000 H   0  0  0  0  0  0  0  0  0  0  0  0
    0.3170    2.0490    0.0000 H   0  0  0  0  0  0  0  0  0  0  0  0
   -1.7321    3.0000    0.0000 H   0  0  0  0  0  0  0  0  0  0  0  0
   -3.4769   -1.4109    0.0000 H   0  0  0  0  0  0  0  0  0  0  0  0
   -4.5274   -0.8547    0.0000 H   0  0  0  0  0  0  0  0  0  0  0  0
   -1.7321   -3.0000    0.0000 H   0  0  0  0  0  0  0  0  0  0  0  0
   -2.7357   -3.2385    0.0000 H   0  0  0  0  0  0  0  0  0  0  0  0
   -4.4850   -2.5845    0.0000 H   0  0  0  0  0  0  0  0  0  0  0  0
   -5.2223   -2.5610    0.0000 H   0  0  0  0  0  0  0  0  0  0  0  0
   -6.8430   -1.1088    0.0000 H   0  0  0  0  0  0  0  0  0  0  0  0
   -6.5266    0.9569    0.0000 H   0  0  0  0  0  0  0  0  0  0  0  0
   -4.4784    3.1137    0.0000 H   0  0  0  0  0  0  0  0  0  0  0  0
    0.3170   -2.0490    0.0000 H   0  0  0  0  0  0  0  0  0  0  0  0
  1  2  1  0
  2  3  1  0
  3  4  1  0
  4  5  1  0
  5  6  1  0
  6  7  1  0
  7  8  1  0
  8  9  1  0
  9 10  1  0
 10 11  1  0
 11 12  1  0
  7 13  1  0
 13  2  1  0
 13  3  1  0
  9  5  1  0
 12  5  1  0
 11  9  1  0
  2 14  1  0
  3 15  1  0
  4 16  1  0
  6 17  1  0
  6 18  1  0
  7 19  1  0
  8 20  1  0
  8 21  1  0
 10 22  1  0
 10 23  1  0
 11 24  1  0
 12 25  1  0
 13 26  1  0
M  END
$$$$
