
     RDKit          2D

 42 43  0  0  0  0  0  0  0  0999 V2000
   11.1446    2.1448    0.0000 C   0  0  0  0  0  0  0  0  0  0  0  0
   10.1804    0.9958    0.0000 N   0  0  0  0  0  0  0  0  0  0  0  0
    8.7032    1.2562    0.0000 C   0  0  0  0  0  0  0  0  0  0  0  0
    7.2260    1.5167    0.0000 C   0  0  0  0  0  0  0  0  0  0  0  0
    5.7488    1.7772    0.0000 C   0  0  0  0  0  0  0  0  0  0  0  0
    4.2716    2.0377    0.0000 C   0  0  0  0  0  0  0  0  0  0  0  0
    2.7944    2.2981    0.0000 C   0  0  0  0  0  0  0  0  0  0  0  0
    2.2814    3.7077    0.0000 N   0  0  0  0  0  0  0  0  0  0  0  0
    1.8302    1.1491    0.0000 C   0  0  0  0  0  0  0  0  0  0  0  0
    0.8660    0.0000    0.0000 C   0  0  0  0  0  0  0  0  0  0  0  0
   -0.4330    0.7500    0.0000 C   0  0  0  0  0  0  0  0  0  0  0  0
   -1.9330    0.7500    0.0000 C   0  0  0  0  0  0  0  0  0  0  0  0
   -1.9330   -0.7500    0.0000 C   0  0  0  0  0  0  0  0  0  0  0  0
   -1.9330   -2.2500    0.0000 O   0  0  0  0  0  0  0  0  0  0  0  0
   -3.4330   -0.7500    0.0000 O   0  0  0  0  0  0  0  0  0  0  0  0
   -0.4330   -0.7500    0.0000 C   0  0  0  0  0  0  0  0  0  0  0  0
    6.9656    0.0395    0.0000 S   0  0  0  0  0  0  0  0  0  0  0  0
    8.1146   -0.9247    0.0000 C   0  0  0  0  0  0  0  0  0  0  0  0
   12.1088    3.2939    0.0000 H   0  0  0  0  0  0  0  0  0  0  0  0
   12.2937    1.1807    0.0000 H   0  0  0  0  0  0  0  0  0  0  0  0
    9.9956    3.1090    0.0000 H   0  0  0  0  0  0  0  0  0  0  0  0
   10.6935   -0.4138    0.0000 H   0  0  0  0  0  0  0  0  0  0  0  0
    8.8554    0.4737    0.0000 H   0  0  0  0  0  0  0  0  0  0  0  0
    8.9637    2.7335    0.0000 H   0  0  0  0  0  0  0  0  0  0  0  0
    7.4865    2.9939    0.0000 H   0  0  0  0  0  0  0  0  0  0  0  0
    6.0093    3.2544    0.0000 H   0  0  0  0  0  0  0  0  0  0  0  0
    5.4883    0.3000    0.0000 H   0  0  0  0  0  0  0  0  0  0  0  0
    4.5321    3.5149    0.0000 H   0  0  0  0  0  0  0  0  0  0  0  0
    4.0111    0.5604    0.0000 H   0  0  0  0  0  0  0  0  0  0  0  0
    3.2455    4.8567    0.0000 H   0  0  0  0  0  0  0  0  0  0  0  0
    0.8072    2.2461    0.0000 H   0  0  0  0  0  0  0  0  0  0  0  0
    2.9793    0.1849    0.0000 H   0  0  0  0  0  0  0  0  0  0  0  0
    1.8302   -1.1491    0.0000 H   0  0  0  0  0  0  0  0  0  0  0  0
   -0.2243    2.2354    0.0000 H   0  0  0  0  0  0  0  0  0  0  0  0
   -3.4330    0.7500    0.0000 H   0  0  0  0  0  0  0  0  0  0  0  0
   -1.9330    2.2500    0.0000 H   0  0  0  0  0  0  0  0  0  0  0  0
   -3.2321   -3.0000    0.0000 H   0  0  0  0  0  0  0  0  0  0  0  0
   -4.1830   -2.0490    0.0000 H   0  0  0  0  0  0  0  0  0  0  0  0
   -0.0448   -2.1989    0.0000 H   0  0  0  0  0  0  0  0  0  0  0  0
    9.2637   -1.8889    0.0000 H   0  0  0  0  0  0  0  0  0  0  0  0
    7.1504   -2.0737    0.0000 H   0  0  0  0  0  0  0  0  0  0  0  0
    8.6976   -0.3810    0.0000 H   0  0  0  0  0  0  0  0  0  0  0  0
  1  2  1  0
  2  3  1  0
  3  4  1  0
  4  5  1  0
  5  6  1  0
  6  7  1  0
  7  8  2  3
  7  9  1  0
  9 10  1  0
 10 11  1  0
 11 12  1  0
 12 13  1  0
 13 14  1  0
 13 15  1  0
 13 16  1  0
  4 17  1  0
 17 18  1  0
 16 10  1  0
 16 11  1  0
  1 19  1  0
  1 20  1  0
  1 21  1  0
  2 22  1  0
  3 23  1  0
  3 24  1  0
  4 25  1  0
  5 26  1  0
  5 27  1  0
  6 28  1  0
  6 29  1  0
  8 30  1  0
  9 31  1  0
  9 32  1  0
 10 33  1  0
 11 34  1  0
 12 35  1  0
 12 36  1  0
 14 37  1  0
 15 38  1  0
 16 39  1  0
 18 40  1  0
 18 41  1  0
 18 42  1  0
M  END
$$$$
