
     RDKit          2D

 99106  0  0  0  0  0  0  0  0999 V2000
   -4.2478   -0.9877    0.0000 C   0  0  0  0  0  0  0  0  0  0  0  0
   -4.5083    0.4895    0.0000 C   0  0  0  0  0  0  0  0  0  0  0  0
   -5.9855    0.2291    0.0000 F   0  0  0  0  0  0  0  0  0  0  0  0
   -4.7688    1.9667    0.0000 C   0  0  0  0  0  0  0  0  0  0  0  0
   -3.2916    2.2272    0.0000 O   0  0  0  0  0  0  0  0  0  0  0  0
   -5.0292    3.4440    0.0000 C   0  0  0  0  0  0  0  0  0  0  0  0
   -6.4388    3.9570    0.0000 O   0  0  0  0  0  0  0  0  0  0  0  0
   -3.8802    4.4081    0.0000 O   0  0  0  0  0  0  0  0  0  0  0  0
   -3.0311    0.7500    0.0000 C   0  0  0  0  0  0  0  0  0  0  0  0
   -1.7321    1.5000    0.0000 C   0  0  0  0  0  0  0  0  0  0  0  0
   -0.4330    0.7500    0.0000 C   0  0  0  0  0  0  0  0  0  0  0  0
    0.8660    0.0000    0.0000 C   0  0  0  0  0  0  0  0  0  0  0  0
   -0.4330   -0.7500    0.0000 C   0  0  0  0  0  0  0  0  0  0  0  0
   -1.7321   -1.5000    0.0000 C   0  0  0  0  0  0  0  0  0  0  0  0
   -3.0311   -0.7500    0.0000 C   0  0  0  0  0  0  0  0  0  0  0  0
   -3.0311   -2.2500    0.0000 C   0  0  0  0  0  0  0  0  0  0  0  0
   -3.0311   -3.7500    0.0000 C   0  0  0  0  0  0  0  0  0  0  0  0
   -4.3301   -3.0000    0.0000 C   0  0  0  0  0  0  0  0  0  0  0  0
   -5.2943   -4.1491    0.0000 C   0  0  0  0  0  0  0  0  0  0  0  0
   -6.1547   -2.9203    0.0000 C   0  0  0  0  0  0  0  0  0  0  0  0
   -7.6319   -2.6599    0.0000 C   0  0  0  0  0  0  0  0  0  0  0  0
   -8.8606   -3.5202    0.0000 O   0  0  0  0  0  0  0  0  0  0  0  0
   -9.1211   -4.9974    0.0000 C   0  0  0  0  0  0  0  0  0  0  0  0
   -8.2607   -6.2262    0.0000 C   0  0  0  0  0  0  0  0  0  0  0  0
   -6.7835   -6.4866    0.0000 C   0  0  0  0  0  0  0  0  0  0  0  0
   -5.6344   -7.4508    0.0000 C   0  0  0  0  0  0  0  0  0  0  0  0
   -4.4854   -8.4150    0.0000 C   0  0  0  0  0  0  0  0  0  0  0  0
   -2.9955   -8.5891    0.0000 C   0  0  0  0  0  0  0  0  0  0  0  0
   -1.9662   -9.6802    0.0000 C   0  0  0  0  0  0  0  0  0  0  0  0
   -1.8789  -11.1777    0.0000 C   0  0  0  0  0  0  0  0  0  0  0  0
   -2.7747  -12.3809    0.0000 C   0  0  0  0  0  0  0  0  0  0  0  0
   -4.2342  -12.7268    0.0000 C   0  0  0  0  0  0  0  0  0  0  0  0
   -5.5747  -12.0536    0.0000 C   0  0  0  0  0  0  0  0  0  0  0  0
   -6.1688  -10.6763    0.0000 C   0  0  0  0  0  0  0  0  0  0  0  0
   -7.3179  -11.6404    0.0000 C   0  0  0  0  0  0  0  0  0  0  0  0
   -8.7274  -12.1535    0.0000 C   0  0  0  0  0  0  0  0  0  0  0  0
   -8.4669  -10.6763    0.0000 C   0  0  0  0  0  0  0  0  0  0  0  0
   -5.7386   -9.2393    0.0000 C   0  0  0  0  0  0  0  0  0  0  0  0
   -5.5548   -5.6263    0.0000 C   0  0  0  0  0  0  0  0  0  0  0  0
   -4.0605   -5.4955    0.0000 C   0  0  0  0  0  0  0  0  0  0  0  0
   -2.6116   -5.8838    0.0000 C   0  0  0  0  0  0  0  0  0  0  0  0
   -3.6723   -6.9444    0.0000 C   0  0  0  0  0  0  0  0  0  0  0  0
   -4.1843   -2.2010    0.0000 H   0  0  0  0  0  0  0  0  0  0  0  0
   -3.4518   -0.9460    0.0000 H   0  0  0  0  0  0  0  0  0  0  0  0
   -5.7442   -0.8830    0.0000 H   0  0  0  0  0  0  0  0  0  0  0  0
   -6.2460    1.7063    0.0000 H   0  0  0  0  0  0  0  0  0  0  0  0
   -2.7785    3.6368    0.0000 H   0  0  0  0  0  0  0  0  0  0  0  0
   -4.1407    5.8853    0.0000 H   0  0  0  0  0  0  0  0  0  0  0  0
   -3.1878    2.2418    0.0000 H   0  0  0  0  0  0  0  0  0  0  0  0
   -2.3895    2.8482    0.0000 H   0  0  0  0  0  0  0  0  0  0  0  0
   -0.7679    2.6491    0.0000 H   0  0  0  0  0  0  0  0  0  0  0  0
    0.3170    2.0490    0.0000 H   0  0  0  0  0  0  0  0  0  0  0  0
    1.8302    1.1491    0.0000 H   0  0  0  0  0  0  0  0  0  0  0  0
    1.8302   -1.1491    0.0000 H   0  0  0  0  0  0  0  0  0  0  0  0
    0.3170   -2.0490    0.0000 H   0  0  0  0  0  0  0  0  0  0  0  0
   -2.6348   -0.3021    0.0000 H   0  0  0  0  0  0  0  0  0  0  0  0
   -4.4865   -1.1130    0.0000 H   0  0  0  0  0  0  0  0  0  0  0  0
   -1.5331   -3.8285    0.0000 H   0  0  0  0  0  0  0  0  0  0  0  0
   -3.0048   -5.2498    0.0000 H   0  0  0  0  0  0  0  0  0  0  0  0
   -5.2943   -1.8509    0.0000 H   0  0  0  0  0  0  0  0  0  0  0  0
   -3.8219   -4.4352    0.0000 H   0  0  0  0  0  0  0  0  0  0  0  0
   -6.2854   -1.4260    0.0000 H   0  0  0  0  0  0  0  0  0  0  0  0
   -4.9112   -2.0815    0.0000 H   0  0  0  0  0  0  0  0  0  0  0  0
   -8.7810   -1.6957    0.0000 H   0  0  0  0  0  0  0  0  0  0  0  0
   -7.1684   -1.2333    0.0000 H   0  0  0  0  0  0  0  0  0  0  0  0
  -10.2181   -6.0204    0.0000 H   0  0  0  0  0  0  0  0  0  0  0  0
  -10.4805   -4.3635    0.0000 H   0  0  0  0  0  0  0  0  0  0  0  0
   -8.3131   -7.7253    0.0000 H   0  0  0  0  0  0  0  0  0  0  0  0
   -9.5972   -6.9072    0.0000 H   0  0  0  0  0  0  0  0  0  0  0  0
   -7.2470   -7.9132    0.0000 H   0  0  0  0  0  0  0  0  0  0  0  0
   -6.8480   -8.3324    0.0000 H   0  0  0  0  0  0  0  0  0  0  0  0
   -4.5374   -6.4279    0.0000 H   0  0  0  0  0  0  0  0  0  0  0  0
   -3.7278   -7.1204    0.0000 H   0  0  0  0  0  0  0  0  0  0  0  0
   -2.7092   -7.1167    0.0000 H   0  0  0  0  0  0  0  0  0  0  0  0
   -1.7471   -7.7576    0.0000 H   0  0  0  0  0  0  0  0  0  0  0  0
   -1.0634   -8.4823    0.0000 H   0  0  0  0  0  0  0  0  0  0  0  0
   -0.4753   -9.8456    0.0000 H   0  0  0  0  0  0  0  0  0  0  0  0
   -0.4174  -10.8403    0.0000 H   0  0  0  0  0  0  0  0  0  0  0  0
   -0.8432  -12.2627    0.0000 H   0  0  0  0  0  0  0  0  0  0  0  0
   -1.4382  -13.0619    0.0000 H   0  0  0  0  0  0  0  0  0  0  0  0
   -2.6787  -13.8778    0.0000 H   0  0  0  0  0  0  0  0  0  0  0  0
   -3.6482  -14.1075    0.0000 H   0  0  0  0  0  0  0  0  0  0  0  0
   -5.1229  -13.9352    0.0000 H   0  0  0  0  0  0  0  0  0  0  0  0
   -6.0133  -13.4880    0.0000 H   0  0  0  0  0  0  0  0  0  0  0  0
   -6.9031  -12.7502    0.0000 H   0  0  0  0  0  0  0  0  0  0  0  0
   -7.4220   -9.8520    0.0000 H   0  0  0  0  0  0  0  0  0  0  0  0
   -6.7318  -13.0212    0.0000 H   0  0  0  0  0  0  0  0  0  0  0  0
   -8.4669  -13.6307    0.0000 H   0  0  0  0  0  0  0  0  0  0  0  0
  -10.2274  -12.1535    0.0000 H   0  0  0  0  0  0  0  0  0  0  0  0
   -9.8765  -10.1632    0.0000 H   0  0  0  0  0  0  0  0  0  0  0  0
   -8.0536   -9.2343    0.0000 H   0  0  0  0  0  0  0  0  0  0  0  0
   -7.2274   -9.0564    0.0000 H   0  0  0  0  0  0  0  0  0  0  0  0
   -6.6553   -8.0520    0.0000 H   0  0  0  0  0  0  0  0  0  0  0  0
   -4.7159   -6.8698    0.0000 H   0  0  0  0  0  0  0  0  0  0  0  0
   -3.7486   -4.0283    0.0000 H   0  0  0  0  0  0  0  0  0  0  0  0
   -1.8167   -4.6117    0.0000 H   0  0  0  0  0  0  0  0  0  0  0  0
   -1.3829   -6.7441    0.0000 H   0  0  0  0  0  0  0  0  0  0  0  0
   -2.5401   -7.9285    0.0000 H   0  0  0  0  0  0  0  0  0  0  0  0
   -4.7142   -8.0235    0.0000 H   0  0  0  0  0  0  0  0  0  0  0  0
  1  2  1  0
  2  3  1  6
  2  4  1  0
  4  5  1  0
  4  6  1  0
  6  7  2  0
  6  8  1  0
  2  9  1  0
  9 10  1  0
 10 11  1  0
 11 12  1  0
 12 13  1  0
 13 14  1  0
 14 15  1  0
 15 16  1  0
 16 17  1  1
 17 18  1  0
 18 19  1  0
 19 20  1  0
 20 21  1  0
 21 22  1  0
 22 23  1  0
 23 24  1  0
 24 25  1  0
 25 26  1  0
 26 27  1  0
 27 28  1  0
 28 29  1  0
 29 30  1  0
 30 31  1  0
 31 32  1  0
 32 33  1  0
 33 34  1  0
 34 35  1  0
 35 36  1  0
 36 37  1  0
 34 38  1  0
 25 39  1  0
 39 40  1  0
 40 41  1  0
 41 42  1  0
 15  9  1  0
 18 16  1  0
 39 19  1  0
 42 40  1  0
 13 11  1  0
 16 14  1  0
 38 27  1  0
 37 35  1  0
  1 43  1  0
  1 44  1  0
  1 45  1  0
  4 46  1  6
  5 47  1  0
  8 48  1  0
  9 49  1  1
 10 50  1  0
 10 51  1  0
 11 52  1  6
 12 53  1  0
 12 54  1  0
 13 55  1  6
 14 56  1  6
 15 57  1  6
 17 58  1  0
 17 59  1  0
 18 60  1  1
 19 61  1  1
 20 62  1  0
 20 63  1  0
 21 64  1  0
 21 65  1  0
 23 66  1  0
 23 67  1  0
 24 68  1  0
 24 69  1  0
 25 70  1  6
 26 71  1  0
 26 72  1  0
 27 73  1  6
 28 74  1  0
 28 75  1  0
 29 76  1  0
 29 77  1  0
 30 78  1  0
 30 79  1  0
 31 80  1  0
 31 81  1  0
 32 82  1  0
 32 83  1  0
 33 84  1  0
 33 85  1  0
 34 86  1  1
 35 87  1  0
 36 88  1  0
 36 89  1  0
 37 90  1  0
 37 91  1  0
 38 92  1  0
 38 93  1  0
 39 94  1  6
 40 95  1  0
 41 96  1  0
 41 97  1  0
 42 98  1  0
 42 99  1  0
M  END
$$$$
