
     RDKit          2D

120125  0  0  0  0  0  0  0  0999 V2000
  -12.2635   -6.2599    0.0000 C   0  0  0  0  0  0  0  0  0  0  0  0
  -11.2029   -5.1993    0.0000 C   0  0  0  0  0  0  0  0  0  0  0  0
  -10.1422   -4.1386    0.0000 C   0  0  0  0  0  0  0  0  0  0  0  0
   -9.0816   -3.0780    0.0000 C   0  0  0  0  0  0  0  0  0  0  0  0
   -8.0209   -2.0173    0.0000 C   0  0  0  0  0  0  0  0  0  0  0  0
   -8.0209   -4.1386    0.0000 C   0  0  0  0  0  0  0  0  0  0  0  0
   -6.9602   -5.1993    0.0000 C   0  0  0  0  0  0  0  0  0  0  0  0
   -5.8996   -6.2599    0.0000 C   0  0  0  0  0  0  0  0  0  0  0  0
   -6.9602   -3.0780    0.0000 O   0  0  0  0  0  0  0  0  0  0  0  0
   -5.5114   -3.4662    0.0000 C   0  0  0  0  0  0  0  0  0  0  0  0
   -4.0625   -3.8544    0.0000 C   0  0  0  0  0  0  0  0  0  0  0  0
   -3.6742   -2.4055    0.0000 C   0  0  0  0  0  0  0  0  0  0  0  0
   -2.2253   -2.7938    0.0000 C   0  0  0  0  0  0  0  0  0  0  0  0
   -0.7765   -3.1820    0.0000 C   0  0  0  0  0  0  0  0  0  0  0  0
    0.6724   -3.5702    0.0000 C   0  0  0  0  0  0  0  0  0  0  0  0
    2.1213   -3.9584    0.0000 C   0  0  0  0  0  0  0  0  0  0  0  0
    3.5702   -4.3467    0.0000 C   0  0  0  0  0  0  0  0  0  0  0  0
    4.7989   -5.2070    0.0000 C   0  0  0  0  0  0  0  0  0  0  0  0
    5.8596   -4.1464    0.0000 C   0  0  0  0  0  0  0  0  0  0  0  0
    3.4395   -5.8410    0.0000 C   0  0  0  0  0  0  0  0  0  0  0  0
    3.8277   -7.2898    0.0000 C   0  0  0  0  0  0  0  0  0  0  0  0
    1.0607   -2.1213    0.0000 N   0  0  0  0  0  0  0  0  0  0  0  0
   -0.0000   -1.0607    0.0000 C   0  0  0  0  0  0  0  0  0  0  0  0
    1.0607    0.0000    0.0000 C   0  0  0  0  0  0  0  0  0  0  0  0
    0.0000    1.0607    0.0000 C   0  0  0  0  0  0  0  0  0  0  0  0
    1.0607    2.1213    0.0000 C   0  0  0  0  0  0  0  0  0  0  0  0
   -1.0607    2.1213    0.0000 C   0  0  0  0  0  0  0  0  0  0  0  0
   -2.1213    1.0607    0.0000 C   0  0  0  0  0  0  0  0  0  0  0  0
   -1.0607    0.0000    0.0000 C   0  0  0  0  0  0  0  0  0  0  0  0
   -3.2860   -0.9566    0.0000 C   0  0  0  0  0  0  0  0  0  0  0  0
   -2.8978    0.4923    0.0000 C   0  0  0  0  0  0  0  0  0  0  0  0
   -2.5095    1.9411    0.0000 C   0  0  0  0  0  0  0  0  0  0  0  0
   -2.6403    3.4354    0.0000 C   0  0  0  0  0  0  0  0  0  0  0  0
   -1.1914    3.8237    0.0000 C   0  0  0  0  0  0  0  0  0  0  0  0
   -3.8690    2.5751    0.0000 C   0  0  0  0  0  0  0  0  0  0  0  0
   -4.9297    3.6357    0.0000 C   0  0  0  0  0  0  0  0  0  0  0  0
   -5.9903    4.6964    0.0000 C   0  0  0  0  0  0  0  0  0  0  0  0
   -7.0510    5.7571    0.0000 C   0  0  0  0  0  0  0  0  0  0  0  0
   -4.7349   -0.5684    0.0000 C   0  0  0  0  0  0  0  0  0  0  0  0
   -4.3467    0.8805    0.0000 C   0  0  0  0  0  0  0  0  0  0  0  0
   -5.1231   -2.0173    0.0000 C   0  0  0  0  0  0  0  0  0  0  0  0
   -6.5720   -1.6291    0.0000 C   0  0  0  0  0  0  0  0  0  0  0  0
   -6.1838   -0.1802    0.0000 C   0  0  0  0  0  0  0  0  0  0  0  0
   -5.7956    1.2687    0.0000 N   0  0  0  0  0  0  0  0  0  0  0  0
   -5.1231   -2.0173    0.0000 N   0  0  0  0  0  0  0  0  0  0  0  0
  -13.3242   -7.3206    0.0000 H   0  0  0  0  0  0  0  0  0  0  0  0
  -13.1870   -5.0779    0.0000 H   0  0  0  0  0  0  0  0  0  0  0  0
  -13.4456   -5.3365    0.0000 H   0  0  0  0  0  0  0  0  0  0  0  0
  -10.1422   -6.2599    0.0000 H   0  0  0  0  0  0  0  0  0  0  0  0
  -12.2635   -4.1386    0.0000 H   0  0  0  0  0  0  0  0  0  0  0  0
   -9.2188   -5.3207    0.0000 H   0  0  0  0  0  0  0  0  0  0  0  0
  -11.2029   -3.0780    0.0000 H   0  0  0  0  0  0  0  0  0  0  0  0
  -10.1422   -2.0173    0.0000 H   0  0  0  0  0  0  0  0  0  0  0  0
   -7.2484   -0.7315    0.0000 H   0  0  0  0  0  0  0  0  0  0  0  0
   -9.0816   -0.9566    0.0000 H   0  0  0  0  0  0  0  0  0  0  0  0
   -6.8389   -2.9408    0.0000 H   0  0  0  0  0  0  0  0  0  0  0  0
   -8.9444   -5.3207    0.0000 H   0  0  0  0  0  0  0  0  0  0  0  0
   -8.0209   -6.2599    0.0000 H   0  0  0  0  0  0  0  0  0  0  0  0
   -5.5257   -4.7609    0.0000 H   0  0  0  0  0  0  0  0  0  0  0  0
   -4.8389   -7.3206    0.0000 H   0  0  0  0  0  0  0  0  0  0  0  0
   -6.9602   -7.3206    0.0000 H   0  0  0  0  0  0  0  0  0  0  0  0
   -4.7175   -5.3365    0.0000 H   0  0  0  0  0  0  0  0  0  0  0  0
   -5.7201   -4.9516    0.0000 H   0  0  0  0  0  0  0  0  0  0  0  0
   -4.2712   -5.3398    0.0000 H   0  0  0  0  0  0  0  0  0  0  0  0
   -2.6717   -4.4164    0.0000 H   0  0  0  0  0  0  0  0  0  0  0  0
   -2.0166   -1.3083    0.0000 H   0  0  0  0  0  0  0  0  0  0  0  0
   -2.4341   -4.2792    0.0000 H   0  0  0  0  0  0  0  0  0  0  0  0
   -0.9334   -1.6902    0.0000 H   0  0  0  0  0  0  0  0  0  0  0  0
   -1.1647   -4.6309    0.0000 H   0  0  0  0  0  0  0  0  0  0  0  0
    0.2842   -5.0191    0.0000 H   0  0  0  0  0  0  0  0  0  0  0  0
    1.5594   -5.3492    0.0000 H   0  0  0  0  0  0  0  0  0  0  0  0
    2.6833   -2.5677    0.0000 H   0  0  0  0  0  0  0  0  0  0  0  0
    4.0337   -2.9201    0.0000 H   0  0  0  0  0  0  0  0  0  0  0  0
    5.8027   -6.3217    0.0000 H   0  0  0  0  0  0  0  0  0  0  0  0
    6.9203   -3.0857    0.0000 H   0  0  0  0  0  0  0  0  0  0  0  0
    6.9203   -5.2070    0.0000 H   0  0  0  0  0  0  0  0  0  0  0  0
    4.9361   -2.9643    0.0000 H   0  0  0  0  0  0  0  0  0  0  0  0
    1.9723   -6.1529    0.0000 H   0  0  0  0  0  0  0  0  0  0  0  0
    4.2159   -8.7387    0.0000 H   0  0  0  0  0  0  0  0  0  0  0  0
    2.3788   -7.6781    0.0000 H   0  0  0  0  0  0  0  0  0  0  0  0
    5.3131   -7.0811    0.0000 H   0  0  0  0  0  0  0  0  0  0  0  0
    2.5095   -1.7331    0.0000 H   0  0  0  0  0  0  0  0  0  0  0  0
   -1.1820   -1.9841    0.0000 H   0  0  0  0  0  0  0  0  0  0  0  0
    2.2427    0.9235    0.0000 H   0  0  0  0  0  0  0  0  0  0  0  0
    2.2427   -0.9235    0.0000 H   0  0  0  0  0  0  0  0  0  0  0  0
    2.1213    3.1820    0.0000 H   0  0  0  0  0  0  0  0  0  0  0  0
    0.1372    3.3034    0.0000 H   0  0  0  0  0  0  0  0  0  0  0  0
    2.2427    1.1979    0.0000 H   0  0  0  0  0  0  0  0  0  0  0  0
   -1.8331    3.4071    0.0000 H   0  0  0  0  0  0  0  0  0  0  0  0
   -0.1372    3.3034    0.0000 H   0  0  0  0  0  0  0  0  0  0  0  0
   -3.3034    0.1372    0.0000 H   0  0  0  0  0  0  0  0  0  0  0  0
   -2.7313    2.4310    0.0000 H   0  0  0  0  0  0  0  0  0  0  0  0
   -2.2427   -0.9235    0.0000 H   0  0  0  0  0  0  0  0  0  0  0  0
   -4.7858   -0.9305    0.0000 H   0  0  0  0  0  0  0  0  0  0  0  0
   -4.2097    1.2195    0.0000 H   0  0  0  0  0  0  0  0  0  0  0  0
   -1.3980    0.4662    0.0000 H   0  0  0  0  0  0  0  0  0  0  0  0
   -1.0105    1.9935    0.0000 H   0  0  0  0  0  0  0  0  0  0  0  0
   -3.1038    4.8620    0.0000 H   0  0  0  0  0  0  0  0  0  0  0  0
    0.2575    4.2119    0.0000 H   0  0  0  0  0  0  0  0  0  0  0  0
   -1.5796    5.2726    0.0000 H   0  0  0  0  0  0  0  0  0  0  0  0
   -0.9827    2.3383    0.0000 H   0  0  0  0  0  0  0  0  0  0  0  0
   -5.2056    1.8942    0.0000 H   0  0  0  0  0  0  0  0  0  0  0  0
   -4.0062    4.8178    0.0000 H   0  0  0  0  0  0  0  0  0  0  0  0
   -6.1117    2.7123    0.0000 H   0  0  0  0  0  0  0  0  0  0  0  0
   -4.9297    5.7571    0.0000 H   0  0  0  0  0  0  0  0  0  0  0  0
   -7.0510    3.6357    0.0000 H   0  0  0  0  0  0  0  0  0  0  0  0
   -8.1117    6.8177    0.0000 H   0  0  0  0  0  0  0  0  0  0  0  0
   -8.1117    4.6964    0.0000 H   0  0  0  0  0  0  0  0  0  0  0  0
   -5.9903    6.8177    0.0000 H   0  0  0  0  0  0  0  0  0  0  0  0
   -4.3206    2.3803    0.0000 H   0  0  0  0  0  0  0  0  0  0  0  0
   -5.6586    1.6078    0.0000 H   0  0  0  0  0  0  0  0  0  0  0  0
   -2.8613    0.6718    0.0000 H   0  0  0  0  0  0  0  0  0  0  0  0
   -5.6851   -3.4081    0.0000 H   0  0  0  0  0  0  0  0  0  0  0  0
   -3.8112   -2.7446    0.0000 H   0  0  0  0  0  0  0  0  0  0  0  0
   -7.8839   -0.9018    0.0000 H   0  0  0  0  0  0  0  0  0  0  0  0
   -7.1340   -3.0198    0.0000 H   0  0  0  0  0  0  0  0  0  0  0  0
   -7.6327    0.2081    0.0000 H   0  0  0  0  0  0  0  0  0  0  0  0
   -6.9776    2.1922    0.0000 H   0  0  0  0  0  0  0  0  0  0  0  0
   -4.8315    2.4179    0.0000 H   0  0  0  0  0  0  0  0  0  0  0  0
   -6.1652   -0.9383    0.0000 H   0  0  0  0  0  0  0  0  0  0  0  0
  1  2  1  0
  2  3  1  0
  3  4  1  0
  4  5  1  0
  4  6  1  0
  6  7  1  0
  7  8  1  0
  6  9  1  0
  9 10  1  0
 10 11  1  0
 11 12  1  0
 12 13  1  0
 13 14  1  0
 14 15  1  0
 15 16  1  0
 16 17  1  0
 17 18  1  0
 18 19  1  0
 18 20  1  0
 20 21  1  0
 15 22  1  0
 22 23  1  0
 23 24  1  0
 24 25  1  0
 25 26  1  0
 25 27  1  0
 27 28  1  0
 28 29  1  0
 12 30  1  0
 30 31  1  0
 31 32  1  0
 32 33  1  0
 33 34  1  0
 33 35  1  0
 35 36  1  0
 36 37  1  0
 37 38  1  0
 30 39  1  0
 39 40  1  0
 39 41  1  0
 41 42  1  0
 42 43  1  0
 43 44  1  0
 12 45  1  0
 45 10  1  0
 20 17  1  0
 29 23  1  0
 35 32  1  0
 43 39  1  0
 29 25  1  0
  1 46  1  0
  1 47  1  0
  1 48  1  0
  2 49  1  0
  2 50  1  0
  3 51  1  0
  3 52  1  0
  4 53  1  0
  5 54  1  0
  5 55  1  0
  5 56  1  0
  6 57  1  0
  7 58  1  0
  7 59  1  0
  8 60  1  0
  8 61  1  0
  8 62  1  0
 10 63  1  0
 11 64  1  0
 11 65  1  0
 13 66  1  0
 13 67  1  0
 14 68  1  0
 14 69  1  0
 15 70  1  0
 16 71  1  0
 16 72  1  0
 17 73  1  0
 18 74  1  0
 19 75  1  0
 19 76  1  0
 19 77  1  0
 20 78  1  0
 21 79  1  0
 21 80  1  0
 21 81  1  0
 22 82  1  0
 23 83  1  0
 24 84  1  0
 24 85  1  0
 26 86  1  0
 26 87  1  0
 26 88  1  0
 27 89  1  0
 27 90  1  0
 28 91  1  0
 28 92  1  0
 29 93  1  0
 30 94  1  0
 31 95  1  0
 31 96  1  0
 32 97  1  0
 33 98  1  0
 34 99  1  0
 34100  1  0
 34101  1  0
 35102  1  0
 36103  1  0
 36104  1  0
 37105  1  0
 37106  1  0
 38107  1  0
 38108  1  0
 38109  1  0
 40110  1  0
 40111  1  0
 40112  1  0
 41113  1  0
 41114  1  0
 42115  1  0
 42116  1  0
 43117  1  0
 44118  1  0
 44119  1  0
 45120  1  0
M  END
$$$$
