
     RDKit          3D

 43 51  0  0  0  0  0  0  0  0999 V2000
   22.3310  -24.6124  -18.0170 C   0  0  0  0  0  0  0  0  0  0  0  0
   21.5703  -23.5815  -17.2086 N   0  0  0  0  0  0  0  0  0  0  0  0
   20.1258  -23.7590  -16.8182 C   0  0  0  0  0  0  0  0  0  0  0  0
   24.4206  -24.4168  -16.4079 N   0  0  0  0  0  0  0  0  0  0  0  0
   19.2676  -24.5554  -17.8423 C   0  0  0  0  0  0  0  0  0  0  0  0
   18.3116  -23.6515  -18.6668 C   0  0  0  0  0  0  0  0  0  0  0  0
   17.0001  -23.3413  -17.8422 C   0  0  0  0  0  0  0  0  0  0  0  0
   25.7129  -23.8176  -16.8938 C   0  0  0  0  0  0  0  0  0  0  0  0
   17.1280  -23.9822  -16.4933 C   0  0  0  0  0  0  0  0  0  0  0  0
   23.1708  -26.5030  -16.4087 C   0  0  0  0  0  0  0  0  0  0  0  0
   17.6950  -24.6995  -17.6398 C   0  0  0  0  0  0  0  0  0  0  0  0
   23.7960  -26.7543  -15.2454 C   0  0  0  0  0  0  0  0  0  0  0  0
   25.7283  -22.2789  -16.5160 N   0  0  0  0  0  0  0  0  0  0  0  0
   25.5058  -22.1754  -14.9530 C   0  0  0  0  0  0  0  0  0  0  0  0
   25.4700  -23.4583  -14.3413 O   0  0  0  0  0  0  0  0  0  0  0  0
   23.5673  -28.1005  -14.5330 C   0  0  0  0  0  0  0  0  0  0  0  0
   23.6281  -25.3167  -17.2982 C   0  0  0  0  0  0  0  0  0  0  0  0
   22.7028  -23.9303  -19.4041 C   0  0  0  0  0  0  0  0  0  0  0  0
   24.9361  -21.5562  -17.6216 C   0  0  0  0  0  0  0  0  0  0  0  0
   15.7484  -23.5530  -18.6635 C   0  0  0  0  0  0  0  0  0  0  0  0
   15.5478  -22.3802  -19.6665 C   0  0  0  0  0  0  0  0  0  0  0  0
   24.9922  -20.0328  -18.0216 C   0  0  0  0  0  0  0  0  0  0  0  0
   22.4770  -27.9950  -13.4785 C   0  0  0  0  0  0  0  0  0  0  0  0
   23.5162  -22.1529  -17.9206 C   0  0  0  0  0  0  0  0  0  0  0  0
   20.9988  -28.1931  -13.9805 C   0  0  0  0  0  0  0  0  0  0  0  0
   23.5781  -19.5181  -17.6768 C   0  0  0  0  0  0  0  0  0  0  0  0
   26.5202  -21.4115  -14.0471 C   0  0  0  0  0  0  0  0  0  0  0  0
   20.3959  -26.7659  -14.3646 C   0  0  0  0  0  0  0  0  0  0  0  0
   24.7587  -18.6904  -17.2531 C   0  0  0  0  0  0  0  0  0  0  0  0
   22.7764  -19.5491  -18.9866 C   0  0  0  0  0  0  0  0  0  0  0  0
   22.3346  -21.0617  -19.5372 C   0  0  0  0  0  0  0  0  0  0  0  0
   27.4626  -22.2062  -13.1204 C   0  0  0  0  0  0  0  0  0  0  0  0
   18.9150  -26.7428  -13.8854 C   0  0  0  0  0  0  0  0  0  0  0  0
   18.4034  -25.8003  -13.1205 C   0  0  0  0  0  0  0  0  0  0  0  0
   27.7550  -20.6173  -14.5083 C   0  0  0  0  0  0  0  0  0  0  0  0
   21.9177  -22.1416  -17.5350 C   0  0  0  0  0  0  0  0  0  0  0  0
   24.1374  -22.3911  -20.5147 O   0  0  0  0  0  0  0  0  0  0  0  0
   28.4828  -21.0286  -13.2338 C   0  0  0  0  0  0  0  0  0  0  0  0
   28.5648  -21.2397  -15.6459 C   0  0  0  0  0  0  0  0  0  0  0  0
   20.1871  -22.0133  -19.9521 C   0  0  0  0  0  0  0  0  0  0  0  0
   19.6332  -21.1680  -20.8547 C   0  0  0  0  0  0  0  0  0  0  0  0
   23.2601  -22.4171  -19.3882 C   0  0  0  0  0  0  0  0  0  0  0  0
   21.0915  -21.4515  -18.8176 C   0  0  0  0  0  0  0  0  0  0  0  0
  2  1  1  0
  3  2  1  0
  5  3  1  0
  6  5  1  0
  7  6  1  0
  8  4  1  0
  9  7  1  0
 11  5  1  0
 11  6  1  0
 11  7  1  0
 11  9  1  0
 12 10  2  3
 13  8  1  0
 14 13  1  0
 15 14  1  0
 16 12  1  0
 17  1  1  0
 17  4  1  0
 17 10  1  0
 18  1  1  0
 19 13  1  0
 20  7  1  0
 21 20  1  0
 22 19  1  0
 23 16  1  0
 24 19  1  0
 25 23  1  0
 26 22  1  0
 27 14  1  0
 28 25  1  0
 29 22  1  0
 29 26  1  0
 30 26  1  0
 31 30  1  0
 32 27  1  0
 33 28  1  0
 34 33  2  0
 35 27  1  0
 36  2  1  0
 36 24  1  0
 38 32  1  0
 38 35  1  0
 39 35  1  0
 41 40  2  0
 42 18  1  0
 42 24  1  0
 42 31  1  0
 42 37  1  0
 43 31  1  0
 43 36  1  0
 43 40  1  0
M  END
$$$$
