
     RDKit          2D

 74 78  0  0  0  0  0  0  0  0999 V2000
   -6.3464    1.9390    0.0000 C   0  0  0  0  0  0  0  0  0  0  0  0
   -4.9691    1.3449    0.0000 C   0  0  0  0  0  0  0  0  0  0  0  0
   -5.3150   -0.1147    0.0000 C   0  0  0  0  0  0  0  0  0  0  0  0
   -3.8781    0.3155    0.0000 C   0  0  0  0  0  0  0  0  0  0  0  0
   -2.6749    1.2113    0.0000 C   0  0  0  0  0  0  0  0  0  0  0  0
   -1.4717    2.1070    0.0000 C   0  0  0  0  0  0  0  0  0  0  0  0
   -0.2685    3.0027    0.0000 C   0  0  0  0  0  0  0  0  0  0  0  0
    0.9347    3.8985    0.0000 C   0  0  0  0  0  0  0  0  0  0  0  0
    0.2615    5.2389    0.0000 C   0  0  0  0  0  0  0  0  0  0  0  0
    1.0858    6.4921    0.0000 C   0  0  0  0  0  0  0  0  0  0  0  0
    0.4126    7.8326    0.0000 C   0  0  0  0  0  0  0  0  0  0  0  0
    1.7530    8.5058    0.0000 C   0  0  0  0  0  0  0  0  0  0  0  0
    1.0798    9.8462    0.0000 N   0  0  0  0  0  0  0  0  0  0  0  0
   -0.2606    9.1730    0.0000 C   0  0  0  0  0  0  0  0  0  0  0  0
   -1.6011    8.4998    0.0000 C   0  0  0  0  0  0  0  0  0  0  0  0
   -2.8543    9.3241    0.0000 O   0  0  0  0  0  0  0  0  0  0  0  0
    2.3717    4.3287    0.0000 C   0  0  0  0  0  0  0  0  0  0  0  0
    3.4627    3.2993    0.0000 C   0  0  0  0  0  0  0  0  0  0  0  0
    2.0257    2.8691    0.0000 C   0  0  0  0  0  0  0  0  0  0  0  0
    1.6798    1.4095    0.0000 C   0  0  0  0  0  0  0  0  0  0  0  0
    0.5888    0.3802    0.0000 C   0  0  0  0  0  0  0  0  0  0  0  0
    0.4146   -1.1097    0.0000 C   0  0  0  0  0  0  0  0  0  0  0  0
    1.2389   -2.3629    0.0000 C   0  0  0  0  0  0  0  0  0  0  0  0
    2.6759   -2.7931    0.0000 C   0  0  0  0  0  0  0  0  0  0  0  0
    1.8516   -4.0463    0.0000 C   0  0  0  0  0  0  0  0  0  0  0  0
    4.0532   -2.1990    0.0000 C   0  0  0  0  0  0  0  0  0  0  0  0
    4.7264   -0.8585    0.0000 C   0  0  0  0  0  0  0  0  0  0  0  0
    4.3805    0.6010    0.0000 C   0  0  0  0  0  0  0  0  0  0  0  0
    5.8779    0.5138    0.0000 C   0  0  0  0  0  0  0  0  0  0  0  0
    6.7022    1.7670    0.0000 O   0  0  0  0  0  0  0  0  0  0  0  0
    3.1773    1.4968    0.0000 C   0  0  0  0  0  0  0  0  0  0  0  0
   -7.7238    2.5331    0.0000 H   0  0  0  0  0  0  0  0  0  0  0  0
   -5.7523    3.3163    0.0000 H   0  0  0  0  0  0  0  0  0  0  0  0
   -7.0283    0.7738    0.0000 H   0  0  0  0  0  0  0  0  0  0  0  0
   -4.3703    2.5548    0.0000 H   0  0  0  0  0  0  0  0  0  0  0  0
   -5.1409   -1.6045    0.0000 H   0  0  0  0  0  0  0  0  0  0  0  0
   -6.6623   -0.2011    0.0000 H   0  0  0  0  0  0  0  0  0  0  0  0
   -3.2049   -1.0249    0.0000 H   0  0  0  0  0  0  0  0  0  0  0  0
   -1.9325   -0.0921    0.0000 H   0  0  0  0  0  0  0  0  0  0  0  0
   -3.3430    2.3843    0.0000 H   0  0  0  0  0  0  0  0  0  0  0  0
   -2.3674    3.3102    0.0000 H   0  0  0  0  0  0  0  0  0  0  0  0
   -0.7293    0.8036    0.0000 H   0  0  0  0  0  0  0  0  0  0  0  0
    0.0387    2.2671    0.0000 H   0  0  0  0  0  0  0  0  0  0  0  0
   -1.1642    4.2059    0.0000 H   0  0  0  0  0  0  0  0  0  0  0  0
   -1.2360    5.3261    0.0000 H   0  0  0  0  0  0  0  0  0  0  0  0
    2.2987    6.4215    0.0000 H   0  0  0  0  0  0  0  0  0  0  0  0
   -0.8358    7.0010    0.0000 H   0  0  0  0  0  0  0  0  0  0  0  0
    3.0935    9.1790    0.0000 H   0  0  0  0  0  0  0  0  0  0  0  0
    2.5014    7.3822    0.0000 H   0  0  0  0  0  0  0  0  0  0  0  0
    1.5516   11.2701    0.0000 H   0  0  0  0  0  0  0  0  0  0  0  0
   -0.9338   10.5135    0.0000 H   0  0  0  0  0  0  0  0  0  0  0  0
   -1.8702    7.0242    0.0000 H   0  0  0  0  0  0  0  0  0  0  0  0
    2.8408    5.5945    0.0000 H   0  0  0  0  0  0  0  0  0  0  0  0
    4.6659    4.1950    0.0000 H   0  0  0  0  0  0  0  0  0  0  0  0
    4.4403    2.1616    0.0000 H   0  0  0  0  0  0  0  0  0  0  0  0
    0.9895    1.8081    0.0000 H   0  0  0  0  0  0  0  0  0  0  0  0
   -0.3888    1.5179    0.0000 H   0  0  0  0  0  0  0  0  0  0  0  0
   -0.8457   -0.0584    0.0000 H   0  0  0  0  0  0  0  0  0  0  0  0
   -1.0249   -0.6879    0.0000 H   0  0  0  0  0  0  0  0  0  0  0  0
   -0.6824   -2.1326    0.0000 H   0  0  0  0  0  0  0  0  0  0  0  0
   -0.1981   -2.7931    0.0000 H   0  0  0  0  0  0  0  0  0  0  0  0
    0.7012   -3.7632    0.0000 H   0  0  0  0  0  0  0  0  0  0  0  0
    3.4928   -4.0511    0.0000 H   0  0  0  0  0  0  0  0  0  0  0  0
    1.0273   -5.2996    0.0000 H   0  0  0  0  0  0  0  0  0  0  0  0
    3.1048   -4.8706    0.0000 H   0  0  0  0  0  0  0  0  0  0  0  0
    0.4362   -3.5498    0.0000 H   0  0  0  0  0  0  0  0  0  0  0  0
    4.4076   -3.6565    0.0000 H   0  0  0  0  0  0  0  0  0  0  0  0
    5.4876   -2.6376    0.0000 H   0  0  0  0  0  0  0  0  0  0  0  0
    5.9348   -1.7472    0.0000 H   0  0  0  0  0  0  0  0  0  0  0  0
    6.2079   -0.6240    0.0000 H   0  0  0  0  0  0  0  0  0  0  0  0
    5.2193    1.8445    0.0000 H   0  0  0  0  0  0  0  0  0  0  0  0
    6.7095   -0.7346    0.0000 H   0  0  0  0  0  0  0  0  0  0  0  0
    4.3805    2.3925    0.0000 H   0  0  0  0  0  0  0  0  0  0  0  0
    3.0206    2.9885    0.0000 H   0  0  0  0  0  0  0  0  0  0  0  0
  1  2  1  0
  2  3  1  0
  3  4  1  0
  4  5  1  0
  5  6  1  0
  6  7  1  0
  8  7  1  1
  8  9  1  0
  9 10  2  3
 10 11  1  0
 11 12  1  0
 12 13  1  0
 13 14  1  0
 14 15  1  0
 15 16  2  0
  8 17  1  0
 17 18  1  0
 19 18  1  1
 19 20  1  0
 20 21  1  0
 21 22  1  0
 22 23  1  0
 23 24  1  0
 24 25  1  0
 24 26  1  0
 26 27  1  0
 27 28  1  0
 28 29  1  0
 29 30  2  0
 28 31  1  0
  4  2  1  0
 19  8  1  0
 31 20  1  0
 14 11  1  0
 19 17  1  0
  1 32  1  0
  1 33  1  0
  1 34  1  0
  2 35  1  1
  3 36  1  0
  3 37  1  0
  4 38  1  1
  5 39  1  0
  5 40  1  0
  6 41  1  0
  6 42  1  0
  7 43  1  0
  7 44  1  0
  9 45  1  0
 10 46  1  0
 11 47  1  6
 12 48  1  0
 12 49  1  0
 13 50  1  0
 14 51  1  1
 15 52  1  0
 17 53  1  1
 18 54  1  0
 18 55  1  0
 20 56  1  6
 21 57  1  0
 21 58  1  0
 22 59  1  0
 22 60  1  0
 23 61  1  0
 23 62  1  0
 24 63  1  1
 25 64  1  0
 25 65  1  0
 25 66  1  0
 26 67  1  0
 26 68  1  0
 27 69  1  0
 27 70  1  0
 28 71  1  1
 29 72  1  0
 31 73  1  0
 31 74  1  0
M  END
$$$$
