
     RDKit          2D

 95107  0  0  0  0  0  0  0  0999 V2000
   -8.4095    4.3828    0.0000 C   0  0  0  0  0  0  0  0  0  0  0  0
   -6.9581    4.7615    0.0000 C   0  0  0  0  0  0  0  0  0  0  0  0
   -6.5603    6.2079    0.0000 C   0  0  0  0  0  0  0  0  0  0  0  0
   -6.1626    7.6542    0.0000 C   0  0  0  0  0  0  0  0  0  0  0  0
   -7.6089    8.0519    0.0000 C   0  0  0  0  0  0  0  0  0  0  0  0
   -5.7649    9.1005    0.0000 C   0  0  0  0  0  0  0  0  0  0  0  0
   -4.3186    8.7028    0.0000 C   0  0  0  0  0  0  0  0  0  0  0  0
   -4.7163    7.2564    0.0000 C   0  0  0  0  0  0  0  0  0  0  0  0
   -3.2649    7.6352    0.0000 C   0  0  0  0  0  0  0  0  0  0  0  0
   -1.9610    8.3766    0.0000 C   0  0  0  0  0  0  0  0  0  0  0  0
   -0.4610    8.3668    0.0000 C   0  0  0  0  0  0  0  0  0  0  0  0
   -1.2195    7.0727    0.0000 C   0  0  0  0  0  0  0  0  0  0  0  0
   -1.2293    5.5728    0.0000 C   0  0  0  0  0  0  0  0  0  0  0  0
   -1.7516    4.1666    0.0000 C   0  0  0  0  0  0  0  0  0  0  0  0
   -1.4152    2.7048    0.0000 C   0  0  0  0  0  0  0  0  0  0  0  0
   -1.4489   -1.4489    0.0000 C   0  0  0  0  0  0  0  0  0  0  0  0
   -0.0000   -1.0607    0.0000 C   0  0  0  0  0  0  0  0  0  0  0  0
    1.0607    0.0000    0.0000 O   0  0  0  0  0  0  0  0  0  0  0  0
    0.0000    1.0607    0.0000 C   0  0  0  0  0  0  0  0  0  0  0  0
    1.3858    1.6347    0.0000 C   0  0  0  0  0  0  0  0  0  0  0  0
    2.7716    2.2087    0.0000 C   0  0  0  0  0  0  0  0  0  0  0  0
    3.9617    1.2956    0.0000 C   0  0  0  0  0  0  0  0  0  0  0  0
    5.3475    1.8696    0.0000 C   0  0  0  0  0  0  0  0  0  0  0  0
    6.7333    2.4436    0.0000 C   0  0  0  0  0  0  0  0  0  0  0  0
    8.1191    3.0176    0.0000 C   0  0  0  0  0  0  0  0  0  0  0  0
    9.3092    2.1045    0.0000 C   0  0  0  0  0  0  0  0  0  0  0  0
    8.3149    4.5048    0.0000 C   0  0  0  0  0  0  0  0  0  0  0  0
    8.5107    5.9920    0.0000 C   0  0  0  0  0  0  0  0  0  0  0  0
    8.7065    7.4791    0.0000 C   0  0  0  0  0  0  0  0  0  0  0  0
    7.0235    6.1878    0.0000 O   0  0  0  0  0  0  0  0  0  0  0  0
   -1.0607    0.0000    0.0000 C   0  0  0  0  0  0  0  0  0  0  0  0
   -2.5607    0.0000    0.0000 C   0  0  0  0  0  0  0  0  0  0  0  0
   -3.6213    1.0607    0.0000 C   0  0  0  0  0  0  0  0  0  0  0  0
   -3.6213    2.5607    0.0000 C   0  0  0  0  0  0  0  0  0  0  0  0
   -4.0095    4.0095    0.0000 C   0  0  0  0  0  0  0  0  0  0  0  0
   -2.9489    5.0702    0.0000 C   0  0  0  0  0  0  0  0  0  0  0  0
   -2.5607    3.6213    0.0000 C   0  0  0  0  0  0  0  0  0  0  0  0
   -1.0607    3.6213    0.0000 C   0  0  0  0  0  0  0  0  0  0  0  0
    0.3882    4.0095    0.0000 C   0  0  0  0  0  0  0  0  0  0  0  0
    1.4489    2.9489    0.0000 C   0  0  0  0  0  0  0  0  0  0  0  0
    0.0000    2.5607    0.0000 C   0  0  0  0  0  0  0  0  0  0  0  0
   -2.5234    6.3312    0.0000 C   0  0  0  0  0  0  0  0  0  0  0  0
   -3.5910    5.2776    0.0000 C   0  0  0  0  0  0  0  0  0  0  0  0
   -8.8072    2.9365    0.0000 H   0  0  0  0  0  0  0  0  0  0  0  0
   -9.4631    5.4504    0.0000 H   0  0  0  0  0  0  0  0  0  0  0  0
   -5.7821    3.8304    0.0000 H   0  0  0  0  0  0  0  0  0  0  0  0
   -5.1140    5.8101    0.0000 H   0  0  0  0  0  0  0  0  0  0  0  0
   -8.0443    6.4263    0.0000 H   0  0  0  0  0  0  0  0  0  0  0  0
   -9.0553    8.4496    0.0000 H   0  0  0  0  0  0  0  0  0  0  0  0
   -7.3905    9.5359    0.0000 H   0  0  0  0  0  0  0  0  0  0  0  0
   -8.1800    6.6648    0.0000 H   0  0  0  0  0  0  0  0  0  0  0  0
   -7.1520    9.6715    0.0000 H   0  0  0  0  0  0  0  0  0  0  0  0
   -5.3672   10.5468    0.0000 H   0  0  0  0  0  0  0  0  0  0  0  0
   -3.5601    9.9969    0.0000 H   0  0  0  0  0  0  0  0  0  0  0  0
   -4.7261    5.7565    0.0000 H   0  0  0  0  0  0  0  0  0  0  0  0
   -2.3397    9.8280    0.0000 H   0  0  0  0  0  0  0  0  0  0  0  0
   -0.1909    9.8423    0.0000 H   0  0  0  0  0  0  0  0  0  0  0  0
    0.9451    7.8446    0.0000 H   0  0  0  0  0  0  0  0  0  0  0  0
    0.2681    5.4845    0.0000 H   0  0  0  0  0  0  0  0  0  0  0  0
   -0.3194    4.6126    0.0000 H   0  0  0  0  0  0  0  0  0  0  0  0
    0.0678    2.9296    0.0000 H   0  0  0  0  0  0  0  0  0  0  0  0
   -0.2127    1.8082    0.0000 H   0  0  0  0  0  0  0  0  0  0  0  0
   -2.5095   -2.5095    0.0000 H   0  0  0  0  0  0  0  0  0  0  0  0
    0.7500   -2.3597    0.0000 H   0  0  0  0  0  0  0  0  0  0  0  0
    1.1642    3.1182    0.0000 H   0  0  0  0  0  0  0  0  0  0  0  0
    1.9598    0.2489    0.0000 H   0  0  0  0  0  0  0  0  0  0  0  0
    3.1472    3.6609    0.0000 H   0  0  0  0  0  0  0  0  0  0  0  0
    3.7659   -0.1916    0.0000 H   0  0  0  0  0  0  0  0  0  0  0  0
    5.9215    0.4838    0.0000 H   0  0  0  0  0  0  0  0  0  0  0  0
    4.7735    3.2554    0.0000 H   0  0  0  0  0  0  0  0  0  0  0  0
    7.3073    1.0578    0.0000 H   0  0  0  0  0  0  0  0  0  0  0  0
    6.1593    3.8294    0.0000 H   0  0  0  0  0  0  0  0  0  0  0  0
   10.6950    2.6785    0.0000 H   0  0  0  0  0  0  0  0  0  0  0  0
    9.1134    0.6173    0.0000 H   0  0  0  0  0  0  0  0  0  0  0  0
    9.8021    4.3090    0.0000 H   0  0  0  0  0  0  0  0  0  0  0  0
    6.8277    4.7006    0.0000 H   0  0  0  0  0  0  0  0  0  0  0  0
    9.9979    5.7962    0.0000 H   0  0  0  0  0  0  0  0  0  0  0  0
    8.9023    8.9663    0.0000 H   0  0  0  0  0  0  0  0  0  0  0  0
   10.1937    7.2834    0.0000 H   0  0  0  0  0  0  0  0  0  0  0  0
    7.2543    7.8548    0.0000 H   0  0  0  0  0  0  0  0  0  0  0  0
    6.2849    7.4933    0.0000 H   0  0  0  0  0  0  0  0  0  0  0  0
   -3.7586   -0.9028    0.0000 H   0  0  0  0  0  0  0  0  0  0  0  0
   -2.5346   -1.4998    0.0000 H   0  0  0  0  0  0  0  0  0  0  0  0
   -5.0702    1.4489    0.0000 H   0  0  0  0  0  0  0  0  0  0  0  0
   -4.5241   -0.1373    0.0000 H   0  0  0  0  0  0  0  0  0  0  0  0
   -5.1085    2.3649    0.0000 H   0  0  0  0  0  0  0  0  0  0  0  0
   -5.4584    4.3978    0.0000 H   0  0  0  0  0  0  0  0  0  0  0  0
   -2.9228    6.5700    0.0000 H   0  0  0  0  0  0  0  0  0  0  0  0
   -0.0280    2.5333    0.0000 H   0  0  0  0  0  0  0  0  0  0  0  0
    0.9502    5.4003    0.0000 H   0  0  0  0  0  0  0  0  0  0  0  0
    2.5636    3.9526    0.0000 H   0  0  0  0  0  0  0  0  0  0  0  0
    2.3929    1.7832    0.0000 H   0  0  0  0  0  0  0  0  0  0  0  0
   -4.9654    4.6766    0.0000 H   0  0  0  0  0  0  0  0  0  0  0  0
   -4.6447    6.3452    0.0000 H   0  0  0  0  0  0  0  0  0  0  0  0
   -3.1620    3.8402    0.0000 H   0  0  0  0  0  0  0  0  0  0  0  0
  1  2  2  3
  2  3  1  0
  4  3  1  1
  4  5  1  0
  4  6  1  0
  6  7  1  0
  7  8  1  0
  8  9  1  0
  9 10  1  0
 10 11  1  0
 12 11  1  1
 12 13  1  0
 13 14  1  0
 14 15  1  0
 15 16  1  0
 16 17  1  0
 17 18  1  0
 18 19  1  0
 19 20  1  1
 20 21  1  0
 21 22  2  3
 22 23  1  0
 23 24  1  0
 24 25  1  0
 25 26  2  3
 25 27  1  0
 27 28  1  0
 28 29  1  0
 28 30  1  0
 19 31  1  0
 31 32  1  1
 32 33  1  0
 33 34  1  0
 34 35  1  0
 35 36  1  0
 36 37  1  0
 37 38  1  0
 38 39  1  0
 39 40  1  0
 41 40  1  6
 13 42  1  0
 42 43  1  1
  8  4  1  0
  9 42  1  6
  9  7  1  0
 12 10  1  0
 36 14  1  0
 41 38  1  0
 42 12  1  0
 31 16  1  0
 37 34  1  6
 41 39  1  0
 31 17  1  0
 37 35  1  0
 41 19  1  0
  1 44  1  0
  1 45  1  0
  2 46  1  0
  3 47  1  0
  3 48  1  0
  5 49  1  0
  5 50  1  0
  5 51  1  0
  6 52  1  0
  6 53  1  0
  7 54  1  6
  8 55  1  6
 10 56  1  6
 11 57  1  0
 11 58  1  0
 13 59  1  1
 14 60  1  1
 15 61  1  0
 15 62  1  0
 16 63  1  6
 17 64  1  1
 20 65  1  0
 20 66  1  0
 21 67  1  0
 22 68  1  0
 23 69  1  0
 23 70  1  0
 24 71  1  0
 24 72  1  0
 26 73  1  0
 26 74  1  0
 27 75  1  0
 27 76  1  0
 28 77  1  1
 29 78  1  0
 29 79  1  0
 29 80  1  0
 30 81  1  0
 32 82  1  0
 32 83  1  0
 33 84  1  0
 33 85  1  0
 34 86  1  6
 35 87  1  1
 36 88  1  1
 38 89  1  6
 39 90  1  1
 40 91  1  0
 40 92  1  0
 43 93  1  0
 43 94  1  0
 43 95  1  0
M  END
$$$$
