
     RDKit          2D

 91 94  0  0  0  0  0  0  0  0999 V2000
   -3.0311    5.9462    0.0000 C   0  0  0  0  0  0  0  0  0  0  0  0
   -3.7811    4.6471    0.0000 C   0  0  0  0  0  0  0  0  0  0  0  0
   -4.5311    3.3481    0.0000 C   0  0  0  0  0  0  0  0  0  0  0  0
   -5.2811    2.0490    0.0000 C   0  0  0  0  0  0  0  0  0  0  0  0
   -6.0311    0.7500    0.0000 O   0  0  0  0  0  0  0  0  0  0  0  0
   -3.2321    2.5981    0.0000 C   0  0  0  0  0  0  0  0  0  0  0  0
   -1.9330    1.8481    0.0000 O   0  0  0  0  0  0  0  0  0  0  0  0
   -0.6340    2.5981    0.0000 C   0  0  0  0  0  0  0  0  0  0  0  0
    0.1160    1.2990    0.0000 C   0  0  0  0  0  0  0  0  0  0  0  0
    0.8660    0.0000    0.0000 C   0  0  0  0  0  0  0  0  0  0  0  0
    2.1651    0.7500    0.0000 C   0  0  0  0  0  0  0  0  0  0  0  0
    2.1651    2.2500    0.0000 C   0  0  0  0  0  0  0  0  0  0  0  0
    2.6781    3.6595    0.0000 C   0  0  0  0  0  0  0  0  0  0  0  0
    3.1911    5.0691    0.0000 C   0  0  0  0  0  0  0  0  0  0  0  0
    4.0876    3.1465    0.0000 C   0  0  0  0  0  0  0  0  0  0  0  0
    5.4972    2.6335    0.0000 C   0  0  0  0  0  0  0  0  0  0  0  0
    6.9067    2.1204    0.0000 C   0  0  0  0  0  0  0  0  0  0  0  0
    8.3162    1.6074    0.0000 C   0  0  0  0  0  0  0  0  0  0  0  0
    9.7258    1.0944    0.0000 C   0  0  0  0  0  0  0  0  0  0  0  0
    9.9863   -0.3828    0.0000 C   0  0  0  0  0  0  0  0  0  0  0  0
   10.8749    2.0586    0.0000 O   0  0  0  0  0  0  0  0  0  0  0  0
    0.8660    3.0000    0.0000 C   0  0  0  0  0  0  0  0  0  0  0  0
   -0.4330    2.2500    0.0000 N   0  0  0  0  0  0  0  0  0  0  0  0
   -0.4330    0.7500    0.0000 C   0  0  0  0  0  0  0  0  0  0  0  0
   -0.4330   -0.7500    0.0000 C   0  0  0  0  0  0  0  0  0  0  0  0
    0.0800   -2.1595    0.0000 C   0  0  0  0  0  0  0  0  0  0  0  0
    0.5930   -3.5691    0.0000 C   0  0  0  0  0  0  0  0  0  0  0  0
    1.3879   -4.8412    0.0000 C   0  0  0  0  0  0  0  0  0  0  0  0
    0.4237   -5.9902    0.0000 C   0  0  0  0  0  0  0  0  0  0  0  0
   -0.9670   -5.4283    0.0000 C   0  0  0  0  0  0  0  0  0  0  0  0
   -0.8624   -3.9320    0.0000 C   0  0  0  0  0  0  0  0  0  0  0  0
   -1.3840    3.8971    0.0000 N   0  0  0  0  0  0  0  0  0  0  0  0
   -2.8840    3.8971    0.0000 C   0  0  0  0  0  0  0  0  0  0  0  0
   -3.1444    2.4199    0.0000 N   0  0  0  0  0  2  0  0  0  0  0  0
   -4.2935    4.4101    0.0000 N   0  0  0  0  0  2  0  0  0  0  0  0
   -3.1444    5.3743    0.0000 C   0  0  0  0  0  0  0  0  0  0  0  0
   -3.8944    6.6734    0.0000 C   0  0  0  0  0  0  0  0  0  0  0  0
   -2.1283    7.1441    0.0000 H   0  0  0  0  0  0  0  0  0  0  0  0
   -4.1100    6.9882    0.0000 H   0  0  0  0  0  0  0  0  0  0  0  0
   -1.6503    5.3601    0.0000 H   0  0  0  0  0  0  0  0  0  0  0  0
   -5.0801    5.3971    0.0000 H   0  0  0  0  0  0  0  0  0  0  0  0
   -5.2230    5.0605    0.0000 H   0  0  0  0  0  0  0  0  0  0  0  0
   -5.8301    4.0981    0.0000 H   0  0  0  0  0  0  0  0  0  0  0  0
   -6.5801    2.7990    0.0000 H   0  0  0  0  0  0  0  0  0  0  0  0
   -4.2021    1.0070    0.0000 H   0  0  0  0  0  0  0  0  0  0  0  0
   -7.5311    0.7500    0.0000 H   0  0  0  0  0  0  0  0  0  0  0  0
   -2.8187    4.0400    0.0000 H   0  0  0  0  0  0  0  0  0  0  0  0
   -3.9821    1.2990    0.0000 H   0  0  0  0  0  0  0  0  0  0  0  0
    0.4450    3.6401    0.0000 H   0  0  0  0  0  0  0  0  0  0  0  0
    1.1950    2.3411    0.0000 H   0  0  0  0  0  0  0  0  0  0  0  0
   -1.3655    1.0645    0.0000 H   0  0  0  0  0  0  0  0  0  0  0  0
    3.6630    0.8285    0.0000 H   0  0  0  0  0  0  0  0  0  0  0  0
    2.6781   -0.6595    0.0000 H   0  0  0  0  0  0  0  0  0  0  0  0
    3.5995    1.8114    0.0000 H   0  0  0  0  0  0  0  0  0  0  0  0
    1.3416    4.3406    0.0000 H   0  0  0  0  0  0  0  0  0  0  0  0
    3.7042    6.4786    0.0000 H   0  0  0  0  0  0  0  0  0  0  0  0
    4.6527    4.7317    0.0000 H   0  0  0  0  0  0  0  0  0  0  0  0
    1.7816    5.5821    0.0000 H   0  0  0  0  0  0  0  0  0  0  0  0
    4.7687    4.4830    0.0000 H   0  0  0  0  0  0  0  0  0  0  0  0
    3.9309    1.6547    0.0000 H   0  0  0  0  0  0  0  0  0  0  0  0
    6.0102    4.0430    0.0000 H   0  0  0  0  0  0  0  0  0  0  0  0
    4.9841    1.2239    0.0000 H   0  0  0  0  0  0  0  0  0  0  0  0
    6.3937    0.7109    0.0000 H   0  0  0  0  0  0  0  0  0  0  0  0
    7.4197    3.5300    0.0000 H   0  0  0  0  0  0  0  0  0  0  0  0
    7.8032    0.1979    0.0000 H   0  0  0  0  0  0  0  0  0  0  0  0
    8.8293    3.0170    0.0000 H   0  0  0  0  0  0  0  0  0  0  0  0
   10.2467   -1.8600    0.0000 H   0  0  0  0  0  0  0  0  0  0  0  0
   11.4635   -0.1224    0.0000 H   0  0  0  0  0  0  0  0  0  0  0  0
    8.5090   -0.6433    0.0000 H   0  0  0  0  0  0  0  0  0  0  0  0
   -0.0982    4.1491    0.0000 H   0  0  0  0  0  0  0  0  0  0  0  0
    1.6830    4.2580    0.0000 H   0  0  0  0  0  0  0  0  0  0  0  0
   -1.7321    3.0000    0.0000 H   0  0  0  0  0  0  0  0  0  0  0  0
   -1.9218    0.5672    0.0000 H   0  0  0  0  0  0  0  0  0  0  0  0
   -1.9102   -1.0105    0.0000 H   0  0  0  0  0  0  0  0  0  0  0  0
   -1.3815   -2.4969    0.0000 H   0  0  0  0  0  0  0  0  0  0  0  0
    1.4896   -1.6465    0.0000 H   0  0  0  0  0  0  0  0  0  0  0  0
    1.9412   -2.9115    0.0000 H   0  0  0  0  0  0  0  0  0  0  0  0
    2.5699   -3.9177    0.0000 H   0  0  0  0  0  0  0  0  0  0  0  0
    2.4299   -5.9202    0.0000 H   0  0  0  0  0  0  0  0  0  0  0  0
    1.6673   -6.8290    0.0000 H   0  0  0  0  0  0  0  0  0  0  0  0
   -0.2805   -7.3146    0.0000 H   0  0  0  0  0  0  0  0  0  0  0  0
   -1.3805   -6.8702    0.0000 H   0  0  0  0  0  0  0  0  0  0  0  0
   -2.4442   -5.1678    0.0000 H   0  0  0  0  0  0  0  0  0  0  0  0
   -2.3615   -3.9843    0.0000 H   0  0  0  0  0  0  0  0  0  0  0  0
   -1.2507   -2.4831    0.0000 H   0  0  0  0  0  0  0  0  0  0  0  0
   -0.6340    5.1962    0.0000 H   0  0  0  0  0  0  0  0  0  0  0  0
   -4.1480    1.3051    0.0000 H   0  0  0  0  0  0  0  0  0  0  0  0
   -1.6829    5.7117    0.0000 H   0  0  0  0  0  0  0  0  0  0  0  0
   -4.6444    7.9724    0.0000 H   0  0  0  0  0  0  0  0  0  0  0  0
   -2.6965    7.5761    0.0000 H   0  0  0  0  0  0  0  0  0  0  0  0
   -5.3364    6.2600    0.0000 H   0  0  0  0  0  0  0  0  0  0  0  0
  1  2  1  0
  2  3  1  0
  3  4  1  0
  4  5  1  0
  3  6  1  0
  6  7  1  0
  7  8  1  0
  8  9  1  0
  9 10  1  0
 10 11  1  0
 11 12  1  0
 12 13  1  0
 13 14  1  0
 13 15  1  0
 15 16  1  0
 16 17  1  0
 17 18  1  0
 18 19  1  0
 19 20  1  0
 19 21  2  0
 12 22  1  0
 22 23  1  0
 23 24  1  0
 24 25  1  0
 25 26  1  0
 26 27  1  0
 27 28  1  0
 28 29  1  0
 29 30  1  0
 30 31  1  0
  8 32  1  0
 32 33  1  0
 33 34  1  0
 33 35  1  0
 35 36  1  0
 36 37  1  0
 24 10  1  0
 31 27  1  0
 36 33  1  0
 25 10  1  0
  1 38  1  0
  1 39  1  0
  1 40  1  0
  2 41  1  0
  2 42  1  0
  3 43  1  0
  4 44  1  0
  4 45  1  0
  5 46  1  0
  6 47  1  0
  6 48  1  0
  8 49  1  0
  9 50  1  0
  9 51  1  0
 11 52  1  0
 11 53  1  0
 12 54  1  0
 13 55  1  0
 14 56  1  0
 14 57  1  0
 14 58  1  0
 15 59  1  0
 15 60  1  0
 16 61  1  0
 16 62  1  0
 17 63  1  0
 17 64  1  0
 18 65  1  0
 18 66  1  0
 20 67  1  0
 20 68  1  0
 20 69  1  0
 22 70  1  0
 22 71  1  0
 23 72  1  0
 24 73  1  0
 25 74  1  0
 26 75  1  0
 26 76  1  0
 27 77  1  0
 28 78  1  0
 28 79  1  0
 29 80  1  0
 29 81  1  0
 30 82  1  0
 30 83  1  0
 31 84  1  0
 31 85  1  0
 32 86  1  0
 34 87  1  0
 36 88  1  0
 37 89  1  0
 37 90  1  0
 37 91  1  0
M  RAD  2  34   2  35   2
M  END
$$$$
