
     RDKit          2D

 38 38  0  0  0  0  0  0  0  0999 V2000
    2.4055   -3.6742    0.0000 C   0  0  0  0  0  0  0  0  0  0  0  0
    2.7938   -2.2253    0.0000 C   0  0  0  0  0  0  0  0  0  0  0  0
    3.1820   -0.7765    0.0000 C   0  0  0  0  0  0  0  0  0  0  0  0
    3.5702    0.6724    0.0000 C   0  0  0  0  0  0  0  0  0  0  0  0
    3.9584    2.1213    0.0000 C   0  0  0  0  0  0  0  0  0  0  0  0
    4.3467    3.5702    0.0000 C   0  0  0  0  0  0  0  0  0  0  0  0
    4.7349    5.0191    0.0000 C   0  0  0  0  0  0  0  0  0  0  0  0
    2.8978    3.9584    0.0000 C   0  0  0  0  0  0  0  0  0  0  0  0
    5.7956    3.1820    0.0000 O   0  0  0  0  0  0  0  0  0  0  0  0
    2.1213    1.0607    0.0000 O   0  0  0  0  0  0  0  0  0  0  0  0
    1.0607   -0.0000    0.0000 C   0  0  0  0  0  0  0  0  0  0  0  0
    0.0000   -1.0607    0.0000 C   0  0  0  0  0  0  0  0  0  0  0  0
   -1.0607   -0.0000    0.0000 C   0  0  0  0  0  0  0  0  0  0  0  0
    0.0000    1.0607    0.0000 C   0  0  0  0  0  0  0  0  0  0  0  0
    2.0173   -5.1231    0.0000 H   0  0  0  0  0  0  0  0  0  0  0  0
    0.9566   -3.2860    0.0000 H   0  0  0  0  0  0  0  0  0  0  0  0
    3.8544   -4.0625    0.0000 H   0  0  0  0  0  0  0  0  0  0  0  0
    4.2426   -2.6136    0.0000 H   0  0  0  0  0  0  0  0  0  0  0  0
    1.3083   -2.0166    0.0000 H   0  0  0  0  0  0  0  0  0  0  0  0
    4.6309   -1.1647    0.0000 H   0  0  0  0  0  0  0  0  0  0  0  0
    2.3011   -0.8691    0.0000 H   0  0  0  0  0  0  0  0  0  0  0  0
    5.0191    0.2842    0.0000 H   0  0  0  0  0  0  0  0  0  0  0  0
    5.4073    1.7331    0.0000 H   0  0  0  0  0  0  0  0  0  0  0  0
    3.0813    2.2446    0.0000 H   0  0  0  0  0  0  0  0  0  0  0  0
    5.1231    6.4680    0.0000 H   0  0  0  0  0  0  0  0  0  0  0  0
    6.2203    4.8104    0.0000 H   0  0  0  0  0  0  0  0  0  0  0  0
    3.9137    5.3509    0.0000 H   0  0  0  0  0  0  0  0  0  0  0  0
    1.4489    4.3467    0.0000 H   0  0  0  0  0  0  0  0  0  0  0  0
    3.0210    4.8356    0.0000 H   0  0  0  0  0  0  0  0  0  0  0  0
    2.5660    3.1372    0.0000 H   0  0  0  0  0  0  0  0  0  0  0  0
    6.9776    4.1054    0.0000 H   0  0  0  0  0  0  0  0  0  0  0  0
    1.6060   -0.6980    0.0000 H   0  0  0  0  0  0  0  0  0  0  0  0
    0.9235   -2.2427    0.0000 H   0  0  0  0  0  0  0  0  0  0  0  0
   -1.0607   -2.1213    0.0000 H   0  0  0  0  0  0  0  0  0  0  0  0
   -2.1213   -1.0607    0.0000 H   0  0  0  0  0  0  0  0  0  0  0  0
   -2.1213    1.0607    0.0000 H   0  0  0  0  0  0  0  0  0  0  0  0
   -1.0607    2.1213    0.0000 H   0  0  0  0  0  0  0  0  0  0  0  0
    1.0607    2.1213    0.0000 H   0  0  0  0  0  0  0  0  0  0  0  0
  1  2  1  0
  2  3  1  0
  3  4  1  0
  4  5  1  0
  5  6  1  0
  6  7  1  0
  6  8  1  0
  6  9  1  0
  4 10  1  0
 10 11  1  0
 11 12  1  0
 12 13  1  0
 13 14  1  0
 14 11  1  0
  1 15  1  0
  1 16  1  0
  1 17  1  0
  2 18  1  0
  2 19  1  0
  3 20  1  0
  3 21  1  0
  4 22  1  6
  5 23  1  0
  5 24  1  0
  7 25  1  0
  7 26  1  0
  7 27  1  0
  8 28  1  0
  8 29  1  0
  8 30  1  0
  9 31  1  0
 11 32  1  0
 12 33  1  0
 12 34  1  0
 13 35  1  0
 13 36  1  0
 14 37  1  0
 14 38  1  0
M  END
$$$$
