
     RDKit          2D

 40 41  0  0  0  0  0  0  0  0999 V2000
    8.9095   -7.2812    0.0000 C   0  0  0  0  0  0  0  0  0  0  0  0
    7.4095   -7.2812    0.0000 C   0  0  0  0  0  0  0  0  0  0  0  0
    5.9095   -7.2812    0.0000 C   0  0  0  0  0  0  0  0  0  0  0  0
    5.6491   -8.7584    0.0000 C   0  0  0  0  0  0  0  0  0  0  0  0
    4.5000   -7.7942    0.0000 C   0  0  0  0  0  0  0  0  0  0  0  0
    3.7500   -6.4952    0.0000 C   0  0  0  0  0  0  0  0  0  0  0  0
    2.4510   -7.2452    0.0000 N   0  0  0  0  0  0  0  0  0  0  0  0
    3.0000   -5.1962    0.0000 C   0  0  0  0  0  0  0  0  0  0  0  0
    4.2990   -4.4462    0.0000 Cl  0  0  0  0  0  0  0  0  0  0  0  0
    2.2500   -3.8971    0.0000 C   0  0  0  0  0  0  0  0  0  0  0  0
    0.9510   -4.6471    0.0000 O   0  0  0  0  0  0  0  0  0  0  0  0
    1.5000   -2.5981    0.0000 C   0  0  0  0  0  0  0  0  0  0  0  0
    0.7500   -1.2990    0.0000 C   0  0  0  0  0  0  0  0  0  0  0  0
    1.5000    0.0000    0.0000 C   0  0  0  0  0  0  0  0  0  0  0  0
    0.7500    1.2990    0.0000 C   0  0  0  0  0  0  0  0  0  0  0  0
   -0.7500    1.2990    0.0000 C   0  0  0  0  0  0  0  0  0  0  0  0
   -1.5000    0.0000    0.0000 C   0  0  0  0  0  0  0  0  0  0  0  0
   -0.7500   -1.2990    0.0000 C   0  0  0  0  0  0  0  0  0  0  0  0
   10.4095   -7.2812    0.0000 H   0  0  0  0  0  0  0  0  0  0  0  0
    8.9095   -5.7812    0.0000 H   0  0  0  0  0  0  0  0  0  0  0  0
    8.9095   -8.7812    0.0000 H   0  0  0  0  0  0  0  0  0  0  0  0
    7.5741   -8.6211    0.0000 H   0  0  0  0  0  0  0  0  0  0  0  0
    7.4095   -5.7812    0.0000 H   0  0  0  0  0  0  0  0  0  0  0  0
    5.8389   -5.9330    0.0000 H   0  0  0  0  0  0  0  0  0  0  0  0
    4.8991  -10.0574    0.0000 H   0  0  0  0  0  0  0  0  0  0  0  0
    6.8519   -9.3713    0.0000 H   0  0  0  0  0  0  0  0  0  0  0  0
    3.4770   -8.8913    0.0000 H   0  0  0  0  0  0  0  0  0  0  0  0
    4.8281   -5.6827    0.0000 H   0  0  0  0  0  0  0  0  0  0  0  0
    2.2681   -8.7340    0.0000 H   0  0  0  0  0  0  0  0  0  0  0  0
    1.1532   -6.8732    0.0000 H   0  0  0  0  0  0  0  0  0  0  0  0
    1.7010   -5.9462    0.0000 H   0  0  0  0  0  0  0  0  0  0  0  0
    3.5490   -3.1471    0.0000 H   0  0  0  0  0  0  0  0  0  0  0  0
    0.6243   -5.9570    0.0000 H   0  0  0  0  0  0  0  0  0  0  0  0
    0.2010   -3.3481    0.0000 H   0  0  0  0  0  0  0  0  0  0  0  0
    2.7990   -1.8481    0.0000 H   0  0  0  0  0  0  0  0  0  0  0  0
    3.0000    0.0000    0.0000 H   0  0  0  0  0  0  0  0  0  0  0  0
    1.5000    2.5981    0.0000 H   0  0  0  0  0  0  0  0  0  0  0  0
   -1.5000    2.5981    0.0000 H   0  0  0  0  0  0  0  0  0  0  0  0
   -3.0000    0.0000    0.0000 H   0  0  0  0  0  0  0  0  0  0  0  0
   -1.5000   -2.5981    0.0000 H   0  0  0  0  0  0  0  0  0  0  0  0
  1  2  1  0
  2  3  1  0
  3  4  1  0
  4  5  1  0
  5  6  1  0
  6  7  1  0
  6  8  1  0
  8  9  1  0
  8 10  1  0
 10 11  1  0
 10 12  1  0
 12 13  1  0
 13 14  2  0
 14 15  1  0
 15 16  2  0
 16 17  1  0
 17 18  2  0
  5  3  1  0
 18 13  1  0
  1 19  1  0
  1 20  1  0
  1 21  1  0
  2 22  1  0
  2 23  1  0
  3 24  1  6
  4 25  1  0
  4 26  1  0
  5 27  1  6
  6 28  1  1
  7 29  1  0
  7 30  1  0
  8 31  1  6
 10 32  1  1
 11 33  1  0
 12 34  1  0
 12 35  1  0
 14 36  1  0
 15 37  1  0
 16 38  1  0
 17 39  1  0
 18 40  1  0
M  END
$$$$
