
     RDKit          2D

 59 65  0  0  0  0  0  0  0  0999 V2000
   -4.3795    5.3847    0.0000 C   0  0  0  0  0  0  0  0  0  0  0  0
   -2.9937    4.8107    0.0000 C   0  0  0  0  0  0  0  0  0  0  0  0
   -2.9937    3.3107    0.0000 C   0  0  0  0  0  0  0  0  0  0  0  0
   -4.4426    3.6989    0.0000 C   0  0  0  0  0  0  0  0  0  0  0  0
   -1.9330    2.2500    0.0000 C   0  0  0  0  0  0  0  0  0  0  0  0
   -0.4330    2.2500    0.0000 C   0  0  0  0  0  0  0  0  0  0  0  0
    0.6276    3.3107    0.0000 C   0  0  0  0  0  0  0  0  0  0  0  0
    1.3776    2.0116    0.0000 C   0  0  0  0  0  0  0  0  0  0  0  0
    0.6276    4.8107    0.0000 C   0  0  0  0  0  0  0  0  0  0  0  0
   -0.4330    5.8713    0.0000 C   0  0  0  0  0  0  0  0  0  0  0  0
   -1.9330    5.8713    0.0000 C   0  0  0  0  0  0  0  0  0  0  0  0
   -1.5448    7.3202    0.0000 C   0  0  0  0  0  0  0  0  0  0  0  0
   -2.9937    7.7084    0.0000 C   0  0  0  0  0  0  0  0  0  0  0  0
   -2.6054    9.1573    0.0000 C   0  0  0  0  0  0  0  0  0  0  0  0
   -1.5448   10.2180    0.0000 B   0  0  0  0  0  0  0  0  0  0  0  0
   -0.0959   10.6062    0.0000 C   0  0  0  0  0  0  0  0  0  0  0  0
    1.3530   10.9944    0.0000 C   0  0  0  0  0  0  0  0  0  0  0  0
    2.8019   11.3827    0.0000 O   0  0  0  0  0  0  0  0  0  0  0  0
    0.2923    9.1573    0.0000 C   0  0  0  0  0  0  0  0  0  0  0  0
   -1.1566    8.7691    0.0000 C   0  0  0  0  0  0  0  0  0  0  0  0
   -0.4330    0.7500    0.0000 C   0  0  0  0  0  0  0  0  0  0  0  0
    0.8660    0.0000    0.0000 O   0  0  0  0  0  0  0  0  0  0  0  0
   -0.4330   -0.7500    0.0000 C   0  0  0  0  0  0  0  0  0  0  0  0
   -1.9330   -0.7500    0.0000 C   0  0  0  0  0  0  0  0  0  0  0  0
   -3.4330   -0.7500    0.0000 C   0  0  0  0  0  0  0  0  0  0  0  0
   -1.9330    0.7500    0.0000 C   0  0  0  0  0  0  0  0  0  0  0  0
   -4.5753    6.8719    0.0000 H   0  0  0  0  0  0  0  0  0  0  0  0
   -5.4264    4.7681    0.0000 H   0  0  0  0  0  0  0  0  0  0  0  0
   -3.8062    2.2325    0.0000 H   0  0  0  0  0  0  0  0  0  0  0  0
   -5.6457    3.8680    0.0000 H   0  0  0  0  0  0  0  0  0  0  0  0
   -4.8308    2.2500    0.0000 H   0  0  0  0  0  0  0  0  0  0  0  0
   -4.4272    4.5845    0.0000 H   0  0  0  0  0  0  0  0  0  0  0  0
   -3.1080    1.5852    0.0000 H   0  0  0  0  0  0  0  0  0  0  0  0
    0.2790    1.7231    0.0000 H   0  0  0  0  0  0  0  0  0  0  0  0
    2.1131    3.5194    0.0000 H   0  0  0  0  0  0  0  0  0  0  0  0
    2.1276    0.7126    0.0000 H   0  0  0  0  0  0  0  0  0  0  0  0
    2.6767    2.7616    0.0000 H   0  0  0  0  0  0  0  0  0  0  0  0
    0.8042    1.4578    0.0000 H   0  0  0  0  0  0  0  0  0  0  0  0
    2.1131    4.6019    0.0000 H   0  0  0  0  0  0  0  0  0  0  0  0
    1.5304    6.0086    0.0000 H   0  0  0  0  0  0  0  0  0  0  0  0
    0.7649    6.7741    0.0000 H   0  0  0  0  0  0  0  0  0  0  0  0
   -0.2761    7.3631    0.0000 H   0  0  0  0  0  0  0  0  0  0  0  0
   -3.3138    6.4574    0.0000 H   0  0  0  0  0  0  0  0  0  0  0  0
   -0.0594    7.1115    0.0000 H   0  0  0  0  0  0  0  0  0  0  0  0
   -4.4426    8.0967    0.0000 H   0  0  0  0  0  0  0  0  0  0  0  0
   -3.5556    6.3177    0.0000 H   0  0  0  0  0  0  0  0  0  0  0  0
   -3.9045    9.9073    0.0000 H   0  0  0  0  0  0  0  0  0  0  0  0
   -0.4841   12.0551    0.0000 H   0  0  0  0  0  0  0  0  0  0  0  0
    0.9648   12.4433    0.0000 H   0  0  0  0  0  0  0  0  0  0  0  0
    1.9149    9.6037    0.0000 H   0  0  0  0  0  0  0  0  0  0  0  0
    3.8625   10.3220    0.0000 H   0  0  0  0  0  0  0  0  0  0  0  0
    0.6806    7.7084    0.0000 H   0  0  0  0  0  0  0  0  0  0  0  0
    1.7777    9.3660    0.0000 H   0  0  0  0  0  0  0  0  0  0  0  0
   -0.0448   -2.1989    0.0000 H   0  0  0  0  0  0  0  0  0  0  0  0
   -1.9330   -2.2500    0.0000 H   0  0  0  0  0  0  0  0  0  0  0  0
   -4.9330   -0.7500    0.0000 H   0  0  0  0  0  0  0  0  0  0  0  0
   -3.4330   -2.2500    0.0000 H   0  0  0  0  0  0  0  0  0  0  0  0
   -3.6159    0.7388    0.0000 H   0  0  0  0  0  0  0  0  0  0  0  0
   -3.4218    0.9328    0.0000 H   0  0  0  0  0  0  0  0  0  0  0  0
  1  2  2  3
  2  3  1  0
  3  4  1  0
  3  5  1  0
  5  6  1  0
  6  7  1  0
  7  8  1  0
  7  9  1  0
  9 10  1  0
 10 11  1  0
 11 12  1  0
 12 13  1  0
 13 14  1  0
 14 15  1  0
 15 16  1  0
 16 17  1  0
 17 18  1  0
 16 19  1  0
 19 20  1  0
  6 21  1  0
 21 22  1  0
 22 23  1  0
 23 24  1  0
 24 25  1  0
 24 26  1  0
 11  2  1  0
 20 12  1  0
 23 21  1  0
 26  5  1  0
 20 14  1  0
 26 21  1  0
 20 15  1  0
  1 27  1  0
  1 28  1  0
  3 29  1  0
  4 30  1  0
  4 31  1  0
  4 32  1  0
  5 33  1  0
  6 34  1  0
  7 35  1  0
  8 36  1  0
  8 37  1  0
  8 38  1  0
  9 39  1  0
  9 40  1  0
 10 41  1  0
 10 42  1  0
 11 43  1  0
 12 44  1  0
 13 45  1  0
 13 46  1  0
 14 47  1  0
 16 48  1  0
 17 49  1  0
 17 50  1  0
 18 51  1  0
 19 52  1  0
 19 53  1  0
 23 54  1  0
 24 55  1  0
 25 56  1  0
 25 57  1  0
 25 58  1  0
 26 59  1  0
M  END
$$$$
