
     RDKit          2D

 56 60  0  0  0  0  0  0  0  0999 V2000
   -5.7874    6.4415    0.0000 C   0  0  0  0  0  0  0  0  0  0  0  0
   -6.1757    4.9926    0.0000 C   0  0  0  0  0  0  0  0  0  0  0  0
   -7.6245    4.6044    0.0000 C   0  0  0  0  0  0  0  0  0  0  0  0
   -9.0734    4.2162    0.0000 C   0  0  0  0  0  0  0  0  0  0  0  0
  -10.5223    3.8280    0.0000 C   0  0  0  0  0  0  0  0  0  0  0  0
   -5.1150    3.9320    0.0000 C   0  0  0  0  0  0  0  0  0  0  0  0
   -4.0543    2.8713    0.0000 C   0  0  0  0  0  0  0  0  0  0  0  0
   -5.1150    1.8107    0.0000 O   0  0  0  0  0  0  0  0  0  0  0  0
   -2.9937    1.8107    0.0000 C   0  0  0  0  0  0  0  0  0  0  0  0
   -1.9330    0.7500    0.0000 N   0  0  0  0  0  0  0  0  0  0  0  0
   -0.4330    0.7500    0.0000 C   0  0  0  0  0  0  0  0  0  0  0  0
    0.8660    0.0000    0.0000 C   0  0  0  0  0  0  0  0  0  0  0  0
    1.8302    1.1491    0.0000 C   0  0  0  0  0  0  0  0  0  0  0  0
    2.7944    2.2981    0.0000 C   0  0  0  0  0  0  0  0  0  0  0  0
    3.7586    3.4472    0.0000 C   0  0  0  0  0  0  0  0  0  0  0  0
    4.7228    4.5963    0.0000 C   0  0  0  0  0  0  0  0  0  0  0  0
    5.6869    5.7453    0.0000 C   0  0  0  0  0  0  0  0  0  0  0  0
    6.6511    6.8944    0.0000 S   0  0  0  0  0  0  0  0  0  0  0  0
    8.1283    6.6339    0.0000 C   0  0  0  0  0  0  0  0  0  0  0  0
    9.0925    7.7830    0.0000 O   0  0  0  0  0  0  0  0  0  0  0  0
   -0.4330   -0.7500    0.0000 C   0  0  0  0  0  0  0  0  0  0  0  0
   -1.1830   -2.0490    0.0000 C   0  0  0  0  0  0  0  0  0  0  0  0
   -1.9330   -3.3481    0.0000 C   0  0  0  0  0  0  0  0  0  0  0  0
   -2.6830   -2.0490    0.0000 C   0  0  0  0  0  0  0  0  0  0  0  0
   -1.9330   -0.7500    0.0000 C   0  0  0  0  0  0  0  0  0  0  0  0
   -6.8481    7.5022    0.0000 H   0  0  0  0  0  0  0  0  0  0  0  0
   -4.3385    6.8298    0.0000 H   0  0  0  0  0  0  0  0  0  0  0  0
   -8.0128    6.0533    0.0000 H   0  0  0  0  0  0  0  0  0  0  0  0
   -7.2363    3.1555    0.0000 H   0  0  0  0  0  0  0  0  0  0  0  0
   -9.4617    5.6651    0.0000 H   0  0  0  0  0  0  0  0  0  0  0  0
   -8.6852    2.7673    0.0000 H   0  0  0  0  0  0  0  0  0  0  0  0
  -11.9712    3.4397    0.0000 H   0  0  0  0  0  0  0  0  0  0  0  0
  -10.1341    2.3791    0.0000 H   0  0  0  0  0  0  0  0  0  0  0  0
  -10.9105    5.2768    0.0000 H   0  0  0  0  0  0  0  0  0  0  0  0
   -4.0543    4.9926    0.0000 H   0  0  0  0  0  0  0  0  0  0  0  0
   -6.1757    2.8713    0.0000 H   0  0  0  0  0  0  0  0  0  0  0  0
   -2.9937    3.9320    0.0000 H   0  0  0  0  0  0  0  0  0  0  0  0
   -4.9063    0.3253    0.0000 H   0  0  0  0  0  0  0  0  0  0  0  0
   -1.9330    2.8713    0.0000 H   0  0  0  0  0  0  0  0  0  0  0  0
   -3.9171    0.6286    0.0000 H   0  0  0  0  0  0  0  0  0  0  0  0
   -0.2243    2.2354    0.0000 H   0  0  0  0  0  0  0  0  0  0  0  0
    1.8302   -1.1491    0.0000 H   0  0  0  0  0  0  0  0  0  0  0  0
    2.9793    0.1849    0.0000 H   0  0  0  0  0  0  0  0  0  0  0  0
    0.8072    2.2461    0.0000 H   0  0  0  0  0  0  0  0  0  0  0  0
    3.9435    1.3340    0.0000 H   0  0  0  0  0  0  0  0  0  0  0  0
    1.6453    3.2623    0.0000 H   0  0  0  0  0  0  0  0  0  0  0  0
    2.6095    4.4114    0.0000 H   0  0  0  0  0  0  0  0  0  0  0  0
    4.9076    2.4830    0.0000 H   0  0  0  0  0  0  0  0  0  0  0  0
    5.8718    3.6321    0.0000 H   0  0  0  0  0  0  0  0  0  0  0  0
    3.5737    5.5604    0.0000 H   0  0  0  0  0  0  0  0  0  0  0  0
    4.5379    6.7095    0.0000 H   0  0  0  0  0  0  0  0  0  0  0  0
    6.8360    4.7812    0.0000 H   0  0  0  0  0  0  0  0  0  0  0  0
    8.6414    5.2244    0.0000 H   0  0  0  0  0  0  0  0  0  0  0  0
   -0.7839   -4.3123    0.0000 H   0  0  0  0  0  0  0  0  0  0  0  0
   -3.0821   -4.3123    0.0000 H   0  0  0  0  0  0  0  0  0  0  0  0
   -4.1830   -2.0490    0.0000 H   0  0  0  0  0  0  0  0  0  0  0  0
  1  2  2  3
  2  3  1  0
  3  4  1  0
  4  5  1  0
  2  6  1  0
  6  7  1  0
  7  8  1  0
  7  9  1  0
  9 10  1  0
 10 11  1  0
 11 12  1  0
 12 13  1  0
 13 14  1  0
 14 15  1  0
 15 16  1  0
 16 17  1  0
 17 18  1  0
 18 19  1  0
 19 20  2  0
 12 21  1  0
 21 22  1  0
 22 23  1  0
 23 24  1  0
 24 25  1  0
 25 10  1  0
 21 11  1  0
 24 22  1  0
 25 21  1  0
 25 22  1  0
  1 26  1  0
  1 27  1  0
  3 28  1  0
  3 29  1  0
  4 30  1  0
  4 31  1  0
  5 32  1  0
  5 33  1  0
  5 34  1  0
  6 35  1  0
  6 36  1  0
  7 37  1  0
  8 38  1  0
  9 39  1  0
  9 40  1  0
 11 41  1  0
 12 42  1  0
 13 43  1  0
 13 44  1  0
 14 45  1  0
 14 46  1  0
 15 47  1  0
 15 48  1  0
 16 49  1  0
 16 50  1  0
 17 51  1  0
 17 52  1  0
 19 53  1  0
 23 54  1  0
 23 55  1  0
 24 56  1  0
M  END
$$$$
