
     RDKit          2D

108115  0  0  0  0  0  0  0  0999 V2000
   -2.8135    9.0551    0.0000 C   0  0  0  0  0  0  0  0  0  0  0  0
   -3.8742    7.9944    0.0000 C   0  0  0  0  0  0  0  0  0  0  0  0
   -3.4859    6.5456    0.0000 C   0  0  0  0  0  0  0  0  0  0  0  0
   -3.0977    5.0967    0.0000 C   0  0  0  0  0  0  0  0  0  0  0  0
   -2.7095    3.6478    0.0000 C   0  0  0  0  0  0  0  0  0  0  0  0
   -2.3212    2.1989    0.0000 C   0  0  0  0  0  0  0  0  0  0  0  0
   -1.9330    0.7500    0.0000 C   0  0  0  0  0  0  0  0  0  0  0  0
   -0.4330    0.7500    0.0000 C   0  0  0  0  0  0  0  0  0  0  0  0
    0.8660    0.0000    0.0000 C   0  0  0  0  0  0  0  0  0  0  0  0
    1.8302    1.1491    0.0000 C   0  0  0  0  0  0  0  0  0  0  0  0
    2.7944    2.2981    0.0000 C   0  0  0  0  0  0  0  0  0  0  0  0
    3.7586    3.4472    0.0000 C   0  0  0  0  0  0  0  0  0  0  0  0
    4.7228    4.5963    0.0000 C   0  0  0  0  0  0  0  0  0  0  0  0
    5.6869    5.7453    0.0000 C   0  0  0  0  0  0  0  0  0  0  0  0
    6.6511    6.8944    0.0000 O   0  0  0  0  0  0  0  0  0  0  0  0
   -0.4330   -0.7500    0.0000 N   0  0  0  0  0  0  0  0  0  0  0  0
   -1.9330   -0.7500    0.0000 C   0  0  0  0  0  0  0  0  0  0  0  0
   -2.2449   -2.2172    0.0000 C   0  0  0  0  0  0  0  0  0  0  0  0
   -3.7367   -2.3740    0.0000 C   0  0  0  0  0  0  0  0  0  0  0  0
   -3.7367   -3.8740    0.0000 C   0  0  0  0  0  0  0  0  0  0  0  0
   -3.7367   -5.3740    0.0000 C   0  0  0  0  0  0  0  0  0  0  0  0
   -5.2367   -5.3740    0.0000 C   0  0  0  0  0  0  0  0  0  0  0  0
   -5.2367   -6.8740    0.0000 C   0  0  0  0  0  0  0  0  0  0  0  0
   -3.7367   -6.8740    0.0000 C   0  0  0  0  0  0  0  0  0  0  0  0
   -2.2367   -6.8740    0.0000 C   0  0  0  0  0  0  0  0  0  0  0  0
   -0.7367   -6.8740    0.0000 C   0  0  0  0  0  0  0  0  0  0  0  0
    0.7633   -6.8740    0.0000 C   0  0  0  0  0  0  0  0  0  0  0  0
    2.2633   -6.8740    0.0000 C   0  0  0  0  0  0  0  0  0  0  0  0
    3.7633   -6.8740    0.0000 C   0  0  0  0  0  0  0  0  0  0  0  0
   -2.2367   -8.3740    0.0000 N   0  0  0  0  0  0  0  0  0  0  0  0
   -0.9376   -9.1240    0.0000 C   0  0  0  0  0  0  0  0  0  0  0  0
   -5.2284   -2.2172    0.0000 C   0  0  0  0  0  0  0  0  0  0  0  0
   -4.3468   -1.0037    0.0000 C   0  0  0  0  0  0  0  0  0  0  0  0
   -3.2321   -0.0000    0.0000 C   0  0  0  0  0  0  0  0  0  0  0  0
   -4.1137    1.2135    0.0000 C   0  0  0  0  0  0  0  0  0  0  0  0
   -4.9954    2.4271    0.0000 C   0  0  0  0  0  0  0  0  0  0  0  0
   -6.2089    1.5454    0.0000 C   0  0  0  0  0  0  0  0  0  0  0  0
   -7.0906    2.7589    0.0000 C   0  0  0  0  0  0  0  0  0  0  0  0
   -7.2474    4.2507    0.0000 C   0  0  0  0  0  0  0  0  0  0  0  0
   -8.7437    4.3553    0.0000 C   0  0  0  0  0  0  0  0  0  0  0  0
   -8.8484    2.8590    0.0000 C   0  0  0  0  0  0  0  0  0  0  0  0
  -10.2401    4.4600    0.0000 C   0  0  0  0  0  0  0  0  0  0  0  0
  -10.8977    5.8081    0.0000 C   0  0  0  0  0  0  0  0  0  0  0  0
   -5.8771    3.6406    0.0000 C   0  0  0  0  0  0  0  0  0  0  0  0
   -3.2017   10.5040    0.0000 H   0  0  0  0  0  0  0  0  0  0  0  0
   -1.3646    8.6669    0.0000 H   0  0  0  0  0  0  0  0  0  0  0  0
   -5.3230    8.3827    0.0000 H   0  0  0  0  0  0  0  0  0  0  0  0
   -4.9348    6.1573    0.0000 H   0  0  0  0  0  0  0  0  0  0  0  0
   -2.0370    6.9338    0.0000 H   0  0  0  0  0  0  0  0  0  0  0  0
   -4.5831    4.8879    0.0000 H   0  0  0  0  0  0  0  0  0  0  0  0
   -1.6488    5.4849    0.0000 H   0  0  0  0  0  0  0  0  0  0  0  0
   -1.2606    4.0360    0.0000 H   0  0  0  0  0  0  0  0  0  0  0  0
   -4.1584    3.2595    0.0000 H   0  0  0  0  0  0  0  0  0  0  0  0
   -3.8210    2.1728    0.0000 H   0  0  0  0  0  0  0  0  0  0  0  0
   -1.1476    2.5134    0.0000 H   0  0  0  0  0  0  0  0  0  0  0  0
   -0.2639    1.9532    0.0000 H   0  0  0  0  0  0  0  0  0  0  0  0
    1.8302   -1.1491    0.0000 H   0  0  0  0  0  0  0  0  0  0  0  0
    2.9793    0.1849    0.0000 H   0  0  0  0  0  0  0  0  0  0  0  0
    0.8072    2.2461    0.0000 H   0  0  0  0  0  0  0  0  0  0  0  0
    3.9435    1.3340    0.0000 H   0  0  0  0  0  0  0  0  0  0  0  0
    1.6453    3.2623    0.0000 H   0  0  0  0  0  0  0  0  0  0  0  0
    2.6095    4.4114    0.0000 H   0  0  0  0  0  0  0  0  0  0  0  0
    4.9076    2.4830    0.0000 H   0  0  0  0  0  0  0  0  0  0  0  0
    5.8718    3.6321    0.0000 H   0  0  0  0  0  0  0  0  0  0  0  0
    3.5737    5.5604    0.0000 H   0  0  0  0  0  0  0  0  0  0  0  0
    4.5379    6.7095    0.0000 H   0  0  0  0  0  0  0  0  0  0  0  0
    6.8360    4.7812    0.0000 H   0  0  0  0  0  0  0  0  0  0  0  0
    8.1283    6.6339    0.0000 H   0  0  0  0  0  0  0  0  0  0  0  0
   -0.7531   -2.3740    0.0000 H   0  0  0  0  0  0  0  0  0  0  0  0
   -2.1249   -3.1940    0.0000 H   0  0  0  0  0  0  0  0  0  0  0  0
   -5.2255   -4.0569    0.0000 H   0  0  0  0  0  0  0  0  0  0  0  0
   -2.7599   -3.9940    0.0000 H   0  0  0  0  0  0  0  0  0  0  0  0
   -2.2478   -5.1912    0.0000 H   0  0  0  0  0  0  0  0  0  0  0  0
   -6.7367   -5.3740    0.0000 H   0  0  0  0  0  0  0  0  0  0  0  0
   -5.0438   -6.1475    0.0000 H   0  0  0  0  0  0  0  0  0  0  0  0
   -5.2367   -8.3740    0.0000 H   0  0  0  0  0  0  0  0  0  0  0  0
   -6.7367   -6.8740    0.0000 H   0  0  0  0  0  0  0  0  0  0  0  0
   -3.7367   -8.3740    0.0000 H   0  0  0  0  0  0  0  0  0  0  0  0
   -2.0538   -5.3852    0.0000 H   0  0  0  0  0  0  0  0  0  0  0  0
   -0.3737   -8.3294    0.0000 H   0  0  0  0  0  0  0  0  0  0  0  0
   -0.7367   -5.3740    0.0000 H   0  0  0  0  0  0  0  0  0  0  0  0
    0.7633   -5.3740    0.0000 H   0  0  0  0  0  0  0  0  0  0  0  0
    0.9462   -8.3628    0.0000 H   0  0  0  0  0  0  0  0  0  0  0  0
    2.2633   -8.3740    0.0000 H   0  0  0  0  0  0  0  0  0  0  0  0
    2.2633   -5.3740    0.0000 H   0  0  0  0  0  0  0  0  0  0  0  0
    5.2633   -6.8740    0.0000 H   0  0  0  0  0  0  0  0  0  0  0  0
    3.7633   -5.3740    0.0000 H   0  0  0  0  0  0  0  0  0  0  0  0
    3.7633   -8.3740    0.0000 H   0  0  0  0  0  0  0  0  0  0  0  0
   -0.9376  -10.6240    0.0000 H   0  0  0  0  0  0  0  0  0  0  0  0
    0.4431   -8.5380    0.0000 H   0  0  0  0  0  0  0  0  0  0  0  0
   -5.8146   -3.5980    0.0000 H   0  0  0  0  0  0  0  0  0  0  0  0
   -6.5766   -1.5597    0.0000 H   0  0  0  0  0  0  0  0  0  0  0  0
   -5.5755   -0.1434    0.0000 H   0  0  0  0  0  0  0  0  0  0  0  0
   -3.1496    2.3626    0.0000 H   0  0  0  0  0  0  0  0  0  0  0  0
   -5.4257    0.4863    0.0000 H   0  0  0  0  0  0  0  0  0  0  0  0
   -5.9595    1.2779    0.0000 H   0  0  0  0  0  0  0  0  0  0  0  0
   -7.4225    0.6637    0.0000 H   0  0  0  0  0  0  0  0  0  0  0  0
   -7.3581    2.5095    0.0000 H   0  0  0  0  0  0  0  0  0  0  0  0
   -8.3193    1.8985    0.0000 H   0  0  0  0  0  0  0  0  0  0  0  0
   -6.8845    5.7061    0.0000 H   0  0  0  0  0  0  0  0  0  0  0  0
   -8.6391    5.8517    0.0000 H   0  0  0  0  0  0  0  0  0  0  0  0
   -8.9530    1.3626    0.0000 H   0  0  0  0  0  0  0  0  0  0  0  0
  -10.3447    2.9636    0.0000 H   0  0  0  0  0  0  0  0  0  0  0  0
  -10.3256    2.5984    0.0000 H   0  0  0  0  0  0  0  0  0  0  0  0
  -11.3549    3.4563    0.0000 H   0  0  0  0  0  0  0  0  0  0  0  0
  -12.3940    5.9128    0.0000 H   0  0  0  0  0  0  0  0  0  0  0  0
  -10.0589    7.0517    0.0000 H   0  0  0  0  0  0  0  0  0  0  0  0
   -5.0822    4.9127    0.0000 H   0  0  0  0  0  0  0  0  0  0  0  0
  1  2  2  3
  2  3  1  0
  3  4  1  0
  4  5  1  0
  5  6  1  0
  6  7  1  0
  7  8  1  0
  8  9  1  0
  9 10  1  0
 10 11  1  0
 11 12  1  0
 12 13  1  0
 13 14  1  0
 14 15  1  0
  9 16  1  0
 16 17  1  0
 17 18  1  0
 18 19  1  0
 19 20  1  0
 20 21  1  0
 21 22  1  0
 22 23  1  0
 23 24  1  0
 24 25  1  0
 25 26  1  0
 26 27  1  0
 27 28  1  0
 28 29  1  0
 25 30  1  0
 30 31  2  3
 19 32  1  0
 32 33  1  0
 33 34  1  0
 34 35  1  0
 35 36  1  0
 36 37  1  0
 37 38  1  0
 38 39  1  0
 39 40  1  0
 40 41  1  0
 40 42  1  0
 42 43  2  3
 39 44  1  0
 17  7  1  0
 33 19  1  0
 44 36  1  0
 34  7  1  0
 44 38  1  0
 16  8  1  0
 34 17  1  0
 24 21  1  0
  1 45  1  0
  1 46  1  0
  2 47  1  0
  3 48  1  0
  3 49  1  0
  4 50  1  0
  4 51  1  0
  5 52  1  0
  5 53  1  0
  6 54  1  0
  6 55  1  0
  8 56  1  0
  9 57  1  0
 10 58  1  0
 10 59  1  0
 11 60  1  0
 11 61  1  0
 12 62  1  0
 12 63  1  0
 13 64  1  0
 13 65  1  0
 14 66  1  0
 14 67  1  0
 15 68  1  0
 18 69  1  0
 18 70  1  0
 20 71  1  0
 20 72  1  0
 21 73  1  0
 22 74  1  0
 22 75  1  0
 23 76  1  0
 23 77  1  0
 24 78  1  0
 25 79  1  0
 26 80  1  0
 26 81  1  0
 27 82  1  0
 27 83  1  0
 28 84  1  0
 28 85  1  0
 29 86  1  0
 29 87  1  0
 29 88  1  0
 31 89  1  0
 31 90  1  0
 32 91  1  0
 32 92  1  0
 33 93  1  0
 35 94  1  0
 35 95  1  0
 36 96  1  0
 37 97  1  0
 37 98  1  0
 38 99  1  0
 39100  1  0
 40101  1  0
 41102  1  0
 41103  1  0
 41104  1  0
 42105  1  0
 43106  1  0
 43107  1  0
 44108  1  0
M  END
$$$$
