
     RDKit          2D

 43 46  0  0  0  0  0  0  0  0999 V2000
   -1.7321    7.5000    0.0000 C   0  0  0  0  0  0  0  0  0  0  0  0
   -0.4330    6.7500    0.0000 C   0  0  0  0  0  0  0  0  0  0  0  0
    0.8660    7.5000    0.0000 C   0  0  0  0  0  0  0  0  0  0  0  0
   -0.4330    5.2500    0.0000 C   0  0  0  0  0  0  0  0  0  0  0  0
   -0.4330    3.7500    0.0000 C   0  0  0  0  0  0  0  0  0  0  0  0
   -0.4330    2.2500    0.0000 C   0  0  0  0  0  0  0  0  0  0  0  0
   -0.4330    0.7500    0.0000 C   0  0  0  0  0  0  0  0  0  0  0  0
    0.8660    0.0000    0.0000 C   0  0  0  0  0  0  0  0  0  0  0  0
    1.6160   -1.2990    0.0000 C   0  0  0  0  0  0  0  0  0  0  0  0
    0.3170   -2.0490    0.0000 C   0  0  0  0  0  0  0  0  0  0  0  0
   -0.4330   -0.7500    0.0000 C   0  0  0  0  0  0  0  0  0  0  0  0
   -1.7321    0.0000    0.0000 C   0  0  0  0  0  0  0  0  0  0  0  0
   -2.6962   -1.1491    0.0000 O   0  0  0  0  0  0  0  0  0  0  0  0
   -4.1734   -0.8886    0.0000 N   0  0  0  0  0  0  0  0  0  0  0  0
   -5.1376   -2.0377    0.0000 C   0  0  0  0  0  0  0  0  0  0  0  0
   -3.9886   -3.0018    0.0000 Cl  0  0  0  0  0  0  0  0  0  0  0  0
   -6.1018   -3.1867    0.0000 C   0  0  0  0  0  0  0  0  0  0  0  0
   -7.4008   -3.9367    0.0000 C   0  0  0  0  0  0  0  0  0  0  0  0
   -7.4008   -2.4367    0.0000 C   0  0  0  0  0  0  0  0  0  0  0  0
   -1.7321    9.0000    0.0000 H   0  0  0  0  0  0  0  0  0  0  0  0
   -3.0311    6.7500    0.0000 H   0  0  0  0  0  0  0  0  0  0  0  0
    2.1651    8.2500    0.0000 H   0  0  0  0  0  0  0  0  0  0  0  0
    0.1160    8.7990    0.0000 H   0  0  0  0  0  0  0  0  0  0  0  0
    1.6160    6.2010    0.0000 H   0  0  0  0  0  0  0  0  0  0  0  0
   -1.9330    5.2500    0.0000 H   0  0  0  0  0  0  0  0  0  0  0  0
    1.0670    5.2500    0.0000 H   0  0  0  0  0  0  0  0  0  0  0  0
    1.0670    3.7500    0.0000 H   0  0  0  0  0  0  0  0  0  0  0  0
   -1.9330    3.7500    0.0000 H   0  0  0  0  0  0  0  0  0  0  0  0
   -1.9330    2.2500    0.0000 H   0  0  0  0  0  0  0  0  0  0  0  0
    1.0670    2.2500    0.0000 H   0  0  0  0  0  0  0  0  0  0  0  0
    1.9267    1.0607    0.0000 H   0  0  0  0  0  0  0  0  0  0  0  0
    2.3660   -2.5981    0.0000 H   0  0  0  0  0  0  0  0  0  0  0  0
    2.9151   -0.5490    0.0000 H   0  0  0  0  0  0  0  0  0  0  0  0
   -0.9821   -2.7990    0.0000 H   0  0  0  0  0  0  0  0  0  0  0  0
    1.0670   -3.3481    0.0000 H   0  0  0  0  0  0  0  0  0  0  0  0
   -2.6962    1.1491    0.0000 H   0  0  0  0  0  0  0  0  0  0  0  0
   -4.6865    0.5209    0.0000 H   0  0  0  0  0  0  0  0  0  0  0  0
   -6.0583   -1.0503    0.0000 H   0  0  0  0  0  0  0  0  0  0  0  0
   -5.1376   -4.3358    0.0000 H   0  0  0  0  0  0  0  0  0  0  0  0
   -6.8878   -5.3463    0.0000 H   0  0  0  0  0  0  0  0  0  0  0  0
   -8.8781   -4.1972    0.0000 H   0  0  0  0  0  0  0  0  0  0  0  0
   -8.8781   -2.1763    0.0000 H   0  0  0  0  0  0  0  0  0  0  0  0
   -7.0972   -1.1213    0.0000 H   0  0  0  0  0  0  0  0  0  0  0  0
  1  2  2  3
  2  3  1  0
  2  4  1  0
  4  5  1  0
  5  6  1  0
  6  7  1  0
  7  8  1  0
  8  9  1  0
  9 10  1  0
 10 11  1  0
 11 12  1  0
 12 13  1  0
 13 14  1  0
 14 15  1  0
 15 16  1  0
 15 17  1  0
 17 18  1  0
 18 19  1  0
 11  7  1  0
 19 17  1  0
 12  7  1  0
 11  8  1  0
  1 20  1  0
  1 21  1  0
  3 22  1  0
  3 23  1  0
  3 24  1  0
  4 25  1  0
  4 26  1  0
  5 27  1  0
  5 28  1  0
  6 29  1  0
  6 30  1  0
  8 31  1  0
  9 32  1  0
  9 33  1  0
 10 34  1  0
 10 35  1  0
 12 36  1  0
 14 37  1  0
 15 38  1  0
 17 39  1  0
 18 40  1  0
 18 41  1  0
 19 42  1  0
 19 43  1  0
M  END
$$$$
