
     RDKit          3D

 45 56  0  0  0  0  0  0  0  0999 V2000
   25.4160  -17.1133  -19.2372 O   0  0  0  0  0  0  0  0  0  0  0  0
   23.2474  -16.4619  -19.3678 C   0  0  0  0  0  0  0  0  0  0  0  0
   23.2366  -14.2510  -17.8541 O   0  0  0  0  0  0  0  0  0  0  0  0
   19.7139  -21.1829  -15.0207 C   0  0  0  0  0  0  0  0  0  0  0  0
   17.9611  -18.7621  -14.0338 C   0  0  0  0  0  0  0  0  0  0  0  0
   25.7882  -21.5834  -18.2211 C   0  0  0  0  0  0  0  0  0  0  0  0
   23.6768  -19.4936  -18.3266 C   0  0  0  0  0  0  0  0  0  0  0  0
   18.9558  -20.2049  -13.5634 C   0  0  0  0  0  0  0  0  0  0  0  0
   26.7406  -19.5930  -18.1465 C   0  0  0  0  0  0  0  0  0  0  0  0
   22.4889  -21.9613  -11.9333 C   0  0  0  0  0  0  0  0  0  0  0  0
   22.1370  -19.6699  -11.9131 S   0  0  0  0  0  0  0  0  0  0  0  0
   16.3236  -15.8418  -17.7283 N   0  0  0  0  0  0  0  0  0  0  0  0
   16.6189  -14.7114  -11.9586 C   0  0  0  0  0  0  0  0  0  0  0  0
   17.2474  -19.8323  -14.1299 C   0  0  0  0  0  0  0  0  0  0  0  0
   17.7344  -17.9805  -16.8157 C   0  0  0  0  0  0  0  0  0  0  0  0
   20.4623  -18.6663  -15.6408 C   0  0  0  0  0  0  0  0  0  0  0  0
   19.9653  -17.9490  -11.0028 C   0  0  0  0  0  0  0  0  0  0  0  0
   18.6316  -20.4381  -15.9717 C   0  0  0  0  0  0  0  0  0  0  0  0
   19.2266  -17.6872  -17.7478 C   0  0  0  0  0  0  0  0  0  0  0  0
   21.6933  -15.9418  -11.3243 N   0  0  0  0  0  0  0  0  0  0  0  0
   20.8880  -17.7836  -12.2922 C   0  0  0  0  0  0  0  0  0  0  0  0
   21.4965  -23.3162   -8.8725 C   0  0  0  0  0  0  0  0  0  0  0  0
   20.2670  -24.1260  -12.7246 C   0  0  0  0  0  0  0  0  0  0  0  0
   22.5409  -16.6089   -9.6846 C   0  0  0  0  0  0  0  0  0  0  0  0
   20.5145  -19.7667   -7.4619 C   0  0  0  0  0  0  0  0  0  0  0  0
   25.6506  -21.5677  -12.1264 C   0  0  0  0  0  0  0  0  0  0  0  0
   19.8130  -20.2352  -12.6217 C   0  0  0  0  0  0  0  0  0  0  0  0
   21.8696  -19.3601   -9.7166 C   0  0  0  0  0  0  0  0  0  0  0  0
   18.2817  -18.2041  -18.1355 C   0  0  0  0  0  0  0  0  0  0  0  0
   22.0979  -19.7593  -16.8779 C   0  0  0  0  0  0  0  0  0  0  0  0
   21.1184  -16.5858  -16.3054 C   0  0  0  0  0  0  0  0  0  0  0  0
   21.1125  -15.1299  -18.1458 C   0  0  0  0  0  0  0  0  0  0  0  0
   18.1439  -12.4906  -15.0898 C   0  0  0  0  0  0  0  0  0  0  0  0
   17.2934  -26.0593  -15.5899 C   0  0  0  0  0  0  0  0  0  0  0  0
   14.2455  -14.9735  -18.1217 C   0  0  0  0  0  0  0  0  0  0  0  0
   24.7215  -23.8858  -11.0583 C   0  0  0  0  0  0  0  0  0  0  0  0
   18.2534  -15.7543  -16.9809 C   0  0  0  0  0  0  0  0  0  0  0  0
   16.9840  -17.0329  -18.4891 C   0  0  0  0  0  0  0  0  0  0  0  0
   23.7258  -18.3247  -10.4674 C   0  0  0  0  0  0  0  0  0  0  0  0
   23.0940  -17.0562  -12.3883 C   0  0  0  0  0  0  0  0  0  0  0  0
   20.4636  -15.5890  -11.2812 C   0  0  0  0  0  0  0  0  0  0  0  0
   20.3497  -17.5447  -20.1125 C   0  0  0  0  0  0  0  0  0  0  0  0
   20.7280  -25.8506  -10.2539 C   0  0  0  0  0  0  0  0  0  0  0  0
   15.6568  -14.4787  -14.6280 C   0  0  0  0  0  0  0  0  0  0  0  0
   28.8097  -18.9711  -11.9054 C   0  0  0  0  0  0  0  0  0  0  0  0
  3  2  1  0
  7  2  1  0
  7  6  1  0
  8  4  1  0
  8  5  1  0
  9  1  1  0
  9  6  1  0
 13  5  1  0
 14  5  1  0
 14  8  1  0
 15 12  1  0
 16 11  1  0
 16 15  1  0
 18  4  1  0
 18  5  1  0
 18 14  1  0
 19 12  1  0
 19 16  1  0
 23 22  1  0
 24 20  1  0
 25 11  1  0
 25 17  1  0
 27  4  1  0
 27 10  1  0
 27 21  1  0
 28 22  1  0
 28 24  1  0
 29 15  1  0
 29 19  1  0
 30  4  1  0
 30  7  1  0
 32 31  1  0
 34 23  2  0
 35 33  1  0
 36 26  1  0
 38 19  1  0
 38 29  1  0
 38 35  1  0
 38 37  1  0
 39 17  1  0
 39 21  1  0
 39 26  1  0
 40 28  1  0
 40 31  1  0
 41 17  1  0
 41 24  1  0
 41 33  1  0
 41 40  1  0
 42 29  1  0
 42 31  1  0
 42 32  1  0
 43 23  1  0
 43 36  1  0
 44 13  1  0
 44 37  1  0
 45 26  1  0
M  END
$$$$
