
     RDKit          2D

117121  0  0  0  0  0  0  0  0999 V2000
   -9.8349    8.7232    0.0000 C   0  0  0  0  0  0  0  0  0  0  0  0
   -8.6654    7.7839    0.0000 C   0  0  0  0  0  0  0  0  0  0  0  0
   -7.4959    6.8447    0.0000 C   0  0  0  0  0  0  0  0  0  0  0  0
   -6.3264    5.9054    0.0000 C   0  0  0  0  0  0  0  0  0  0  0  0
   -5.1569    4.9661    0.0000 C   0  0  0  0  0  0  0  0  0  0  0  0
   -3.9874    4.0268    0.0000 C   0  0  0  0  0  0  0  0  0  0  0  0
   -6.0962    3.7966    0.0000 C   0  0  0  0  0  0  0  0  0  0  0  0
   -7.0354    2.6271    0.0000 C   0  0  0  0  0  0  0  0  0  0  0  0
   -7.2657    4.7359    0.0000 C   0  0  0  0  0  0  0  0  0  0  0  0
   -4.2176    6.1356    0.0000 C   0  0  0  0  0  0  0  0  0  0  0  0
   -3.2783    7.3051    0.0000 C   0  0  0  0  0  0  0  0  0  0  0  0
   -2.1088    6.3659    0.0000 C   0  0  0  0  0  0  0  0  0  0  0  0
   -1.9100    7.8526    0.0000 C   0  0  0  0  0  0  0  0  0  0  0  0
   -0.7336    6.9649    0.0000 C   0  0  0  0  0  0  0  0  0  0  0  0
    0.7624    6.8563    0.0000 C   0  0  0  0  0  0  0  0  0  0  0  0
    2.0366    6.0648    0.0000 C   0  0  0  0  0  0  0  0  0  0  0  0
    2.7971    4.7718    0.0000 C   0  0  0  0  0  0  0  0  0  0  0  0
    3.7364    5.9414    0.0000 C   0  0  0  0  0  0  0  0  0  0  0  0
    3.3676    7.3953    0.0000 O   0  0  0  0  0  0  0  0  0  0  0  0
    5.2188    5.7127    0.0000 C   0  0  0  0  0  0  0  0  0  0  0  0
    6.7013    5.4840    0.0000 C   0  0  0  0  0  0  0  0  0  0  0  0
    8.1837    5.2553    0.0000 N   0  0  0  0  0  0  0  0  0  0  0  0
    8.7269    3.8571    0.0000 C   0  0  0  0  0  0  0  0  0  0  0  0
    2.8695    3.2736    0.0000 C   0  0  0  0  0  0  0  0  0  0  0  0
    4.2447    3.8726    0.0000 O   0  0  0  0  0  0  0  0  0  0  0  0
    2.2374    1.9133    0.0000 O   0  0  0  0  0  0  0  0  0  0  0  0
    1.0456    1.0025    0.0000 C   0  0  0  0  0  0  0  0  0  0  0  0
    2.3198    0.2111    0.0000 C   0  0  0  0  0  0  0  0  0  0  0  0
   -0.4330    0.7500    0.0000 C   0  0  0  0  0  0  0  0  0  0  0  0
    0.8660    0.0000    0.0000 C   0  0  0  0  0  0  0  0  0  0  0  0
    1.8302    1.1491    0.0000 C   0  0  0  0  0  0  0  0  0  0  0  0
    2.7944    2.2981    0.0000 C   0  0  0  0  0  0  0  0  0  0  0  0
    3.7586    3.4472    0.0000 C   0  0  0  0  0  0  0  0  0  0  0  0
    4.7228    4.5963    0.0000 C   0  0  0  0  0  0  0  0  0  0  0  0
    5.6869    5.7453    0.0000 C   0  0  0  0  0  0  0  0  0  0  0  0
    6.6511    6.8944    0.0000 C   0  0  0  0  0  0  0  0  0  0  0  0
    4.5379    6.7095    0.0000 N   0  0  0  0  0  0  0  0  0  0  0  0
   -0.4330   -0.7500    0.0000 C   0  0  0  0  0  0  0  0  0  0  0  0
   -1.8596   -1.2135    0.0000 C   0  0  0  0  0  0  0  0  0  0  0  0
   -2.7413    0.0000    0.0000 C   0  0  0  0  0  0  0  0  0  0  0  0
   -3.8884    1.1522    0.0000 C   0  0  0  0  0  0  0  0  0  0  0  0
   -2.9074    2.2869    0.0000 C   0  0  0  0  0  0  0  0  0  0  0  0
   -3.3363    3.7243    0.0000 C   0  0  0  0  0  0  0  0  0  0  0  0
   -3.0481    5.1963    0.0000 C   0  0  0  0  0  0  0  0  0  0  0  0
   -1.8596    1.2135    0.0000 C   0  0  0  0  0  0  0  0  0  0  0  0
  -11.0044    9.6625    0.0000 H   0  0  0  0  0  0  0  0  0  0  0  0
  -10.7742    7.5537    0.0000 H   0  0  0  0  0  0  0  0  0  0  0  0
   -8.8957    9.8927    0.0000 H   0  0  0  0  0  0  0  0  0  0  0  0
   -9.6047    6.6144    0.0000 H   0  0  0  0  0  0  0  0  0  0  0  0
   -7.7261    8.9535    0.0000 H   0  0  0  0  0  0  0  0  0  0  0  0
   -6.5566    8.0142    0.0000 H   0  0  0  0  0  0  0  0  0  0  0  0
   -8.5707    5.7984    0.0000 H   0  0  0  0  0  0  0  0  0  0  0  0
   -5.5367    7.1807    0.0000 H   0  0  0  0  0  0  0  0  0  0  0  0
   -7.5208    4.9979    0.0000 H   0  0  0  0  0  0  0  0  0  0  0  0
   -2.8179    3.0876    0.0000 H   0  0  0  0  0  0  0  0  0  0  0  0
   -2.7930    4.9343    0.0000 H   0  0  0  0  0  0  0  0  0  0  0  0
   -5.0622    2.9805    0.0000 H   0  0  0  0  0  0  0  0  0  0  0  0
   -5.3410    2.5005    0.0000 H   0  0  0  0  0  0  0  0  0  0  0  0
   -7.9747    1.4576    0.0000 H   0  0  0  0  0  0  0  0  0  0  0  0
   -8.3107    3.4168    0.0000 H   0  0  0  0  0  0  0  0  0  0  0  0
   -5.8659    1.6878    0.0000 H   0  0  0  0  0  0  0  0  0  0  0  0
   -8.5410    5.5256    0.0000 H   0  0  0  0  0  0  0  0  0  0  0  0
   -8.3405    3.6896    0.0000 H   0  0  0  0  0  0  0  0  0  0  0  0
   -6.6373    6.0979    0.0000 H   0  0  0  0  0  0  0  0  0  0  0  0
   -5.2639    7.2105    0.0000 H   0  0  0  0  0  0  0  0  0  0  0  0
   -4.4478    8.2444    0.0000 H   0  0  0  0  0  0  0  0  0  0  0  0
   -2.8207    8.7336    0.0000 H   0  0  0  0  0  0  0  0  0  0  0  0
   -1.7112    9.3394    0.0000 H   0  0  0  0  0  0  0  0  0  0  0  0
   -0.4508    8.2000    0.0000 H   0  0  0  0  0  0  0  0  0  0  0  0
   -3.3045    8.4053    0.0000 H   0  0  0  0  0  0  0  0  0  0  0  0
   -1.3270    8.3425    0.0000 H   0  0  0  0  0  0  0  0  0  0  0  0
   -0.1015    8.3252    0.0000 H   0  0  0  0  0  0  0  0  0  0  0  0
    0.5119    8.3352    0.0000 H   0  0  0  0  0  0  0  0  0  0  0  0
    1.8344    7.9055    0.0000 H   0  0  0  0  0  0  0  0  0  0  0  0
    2.3248    7.5368    0.0000 H   0  0  0  0  0  0  0  0  0  0  0  0
    3.2235    6.9821    0.0000 H   0  0  0  0  0  0  0  0  0  0  0  0
    4.2950    4.8505    0.0000 H   0  0  0  0  0  0  0  0  0  0  0  0
    5.2651    7.2120    0.0000 H   0  0  0  0  0  0  0  0  0  0  0  0
    5.8820    4.3672    0.0000 H   0  0  0  0  0  0  0  0  0  0  0  0
    7.2819    6.8671    0.0000 H   0  0  0  0  0  0  0  0  0  0  0  0
    6.8381    3.9902    0.0000 H   0  0  0  0  0  0  0  0  0  0  0  0
    9.1230    6.4248    0.0000 H   0  0  0  0  0  0  0  0  0  0  0  0
    9.2701    2.4589    0.0000 H   0  0  0  0  0  0  0  0  0  0  0  0
   10.1251    4.4003    0.0000 H   0  0  0  0  0  0  0  0  0  0  0  0
    7.3287    3.3139    0.0000 H   0  0  0  0  0  0  0  0  0  0  0  0
    4.0403    2.3359    0.0000 H   0  0  0  0  0  0  0  0  0  0  0  0
    5.4511    2.9812    0.0000 H   0  0  0  0  0  0  0  0  0  0  0  0
    1.1221   -0.4955    0.0000 H   0  0  0  0  0  0  0  0  0  0  0  0
    3.5940   -0.5804    0.0000 H   0  0  0  0  0  0  0  0  0  0  0  0
    1.6895   -1.1501    0.0000 H   0  0  0  0  0  0  0  0  0  0  0  0
    3.2607    1.3793    0.0000 H   0  0  0  0  0  0  0  0  0  0  0  0
    1.6830   -1.2580    0.0000 H   0  0  0  0  0  0  0  0  0  0  0  0
    3.1784    0.4916    0.0000 H   0  0  0  0  0  0  0  0  0  0  0  0
    0.6811    2.1132    0.0000 H   0  0  0  0  0  0  0  0  0  0  0  0
    3.9435    1.3340    0.0000 H   0  0  0  0  0  0  0  0  0  0  0  0
    1.6453    3.2623    0.0000 H   0  0  0  0  0  0  0  0  0  0  0  0
    2.8770    4.6608    0.0000 H   0  0  0  0  0  0  0  0  0  0  0  0
    4.7815    2.3501    0.0000 H   0  0  0  0  0  0  0  0  0  0  0  0
    3.8411    5.8098    0.0000 H   0  0  0  0  0  0  0  0  0  0  0  0
    5.8718    3.6321    0.0000 H   0  0  0  0  0  0  0  0  0  0  0  0
    6.9450    4.9284    0.0000 H   0  0  0  0  0  0  0  0  0  0  0  0
    7.6153    8.0435    0.0000 H   0  0  0  0  0  0  0  0  0  0  0  0
    7.9993    6.2369    0.0000 H   0  0  0  0  0  0  0  0  0  0  0  0
    5.7695    8.1080    0.0000 H   0  0  0  0  0  0  0  0  0  0  0  0
    4.6163    8.2075    0.0000 H   0  0  0  0  0  0  0  0  0  0  0  0
    3.0525    6.9184    0.0000 H   0  0  0  0  0  0  0  0  0  0  0  0
    0.1771   -2.1203    0.0000 H   0  0  0  0  0  0  0  0  0  0  0  0
   -1.2495   -2.5838    0.0000 H   0  0  0  0  0  0  0  0  0  0  0  0
   -3.1586   -1.9635    0.0000 H   0  0  0  0  0  0  0  0  0  0  0  0
   -4.2301   -0.1828    0.0000 H   0  0  0  0  0  0  0  0  0  0  0  0
   -5.2994    1.6614    0.0000 H   0  0  0  0  0  0  0  0  0  0  0  0
   -5.0005    0.1456    0.0000 H   0  0  0  0  0  0  0  0  0  0  0  0
   -3.9779    1.2362    0.0000 H   0  0  0  0  0  0  0  0  0  0  0  0
   -4.4082    2.6751    0.0000 H   0  0  0  0  0  0  0  0  0  0  0  0
   -4.8329    3.8247    0.0000 H   0  0  0  0  0  0  0  0  0  0  0  0
   -1.9374    4.1882    0.0000 H   0  0  0  0  0  0  0  0  0  0  0  0
   -3.3375    1.4701    0.0000 H   0  0  0  0  0  0  0  0  0  0  0  0
  1  2  1  0
  2  3  1  0
  3  4  1  0
  5  4  1  6
  5  6  1  0
  5  7  1  0
  7  8  1  0
  7  9  1  0
  5 10  1  0
 10 11  1  0
 11 12  1  0
 12 13  1  6
 12 14  1  0
 14 15  1  0
 15 16  1  0
 16 17  1  0
 17 18  1  0
 18 19  2  0
 18 20  1  0
 20 21  1  0
 21 22  1  0
 22 23  1  0
 17 24  1  0
 24 25  1  0
 24 26  1  0
 26 27  1  0
 27 28  1  0
 29 27  1  6
 29 30  1  0
 30 31  1  0
 31 32  1  0
 32 33  1  0
 33 34  1  0
 34 35  1  0
 35 36  1  0
 35 37  1  0
 30 38  1  0
 38 39  1  0
 39 40  1  0
 40 41  1  0
 41 42  1  0
 42 43  1  0
 43 44  1  0
 42 45  1  0
 44 10  1  0
 44 12  1  0
 38 29  1  0
 45 40  1  0
 45 29  1  0
  1 46  1  0
  1 47  1  0
  1 48  1  0
  2 49  1  0
  2 50  1  0
  3 51  1  0
  3 52  1  0
  4 53  1  0
  4 54  1  0
  6 55  1  0
  6 56  1  0
  6 57  1  0
  7 58  1  0
  8 59  1  0
  8 60  1  0
  8 61  1  0
  9 62  1  0
  9 63  1  0
  9 64  1  0
 10 65  1  6
 11 66  1  0
 11 67  1  0
 13 68  1  0
 13 69  1  0
 13 70  1  0
 14 71  1  0
 14 72  1  0
 15 73  1  0
 15 74  1  0
 16 75  1  0
 16 76  1  0
 17 77  1  1
 20 78  1  0
 20 79  1  0
 21 80  1  0
 21 81  1  0
 22 82  1  0
 23 83  1  0
 23 84  1  0
 23 85  1  0
 24 86  1  1
 25 87  1  0
 27 88  1  6
 28 89  1  0
 28 90  1  0
 28 91  1  0
 30 92  1  1
 31 93  1  0
 31 94  1  0
 32 95  1  0
 32 96  1  0
 33 97  1  0
 33 98  1  0
 34 99  1  0
 34100  1  0
 35101  1  6
 36102  1  0
 36103  1  0
 36104  1  0
 37105  1  0
 37106  1  0
 38107  1  6
 39108  1  0
 39109  1  0
 40110  1  6
 41111  1  0
 41112  1  0
 42113  1  1
 43114  1  0
 43115  1  0
 44116  1  1
 45117  1  6
M  END
$$$$
