
     RDKit          2D

 62 75  0  0  0  0  0  0  0  0999 V2000
    0.8185    1.8382    0.0000 C   0  0  0  0  0  0  0  0  0  0  0  0
   -0.1844    1.6459    0.0000 C   0  0  0  0  0  0  0  0  0  0  0  0
   -1.6058    1.6852    0.0000 C   0  0  0  0  0  0  0  0  0  0  0  0
   -0.4330    0.7500    0.0000 C   0  0  0  0  0  0  0  0  0  0  0  0
    0.8660    0.0000    0.0000 C   0  0  0  0  0  0  0  0  0  0  0  0
   -0.4330   -0.7500    0.0000 C   0  0  0  0  0  0  0  0  0  0  0  0
   -1.6058   -1.6852    0.0000 C   0  0  0  0  0  0  0  0  0  0  0  0
   -1.1636   -3.1186    0.0000 C   0  0  0  0  0  0  0  0  0  0  0  0
   -2.6260   -2.7848    0.0000 C   0  0  0  0  0  0  0  0  0  0  0  0
   -3.0682   -1.3515    0.0000 C   0  0  0  0  0  0  0  0  0  0  0  0
   -3.7190    0.0000    0.0000 C   0  0  0  0  0  0  0  0  0  0  0  0
   -3.0682    1.3515    0.0000 C   0  0  0  0  0  0  0  0  0  0  0  0
   -3.8375    2.6391    0.0000 C   0  0  0  0  0  0  0  0  0  0  0  0
   -4.5680    1.3290    0.0000 C   0  0  0  0  0  0  0  0  0  0  0  0
   -4.8599    2.8003    0.0000 N   0  0  0  0  0  0  0  0  0  0  0  0
   -0.8818    4.5585    0.0000 C   0  0  0  0  0  0  0  0  0  0  0  0
   -2.2611    5.1480    0.0000 C   0  0  0  0  0  0  0  0  0  0  0  0
   -3.4408    6.0745    0.0000 C   0  0  0  0  0  0  0  0  0  0  0  0
   -2.0486    6.6329    0.0000 C   0  0  0  0  0  0  0  0  0  0  0  0
   -2.3568    8.1009    0.0000 C   0  0  0  0  0  0  0  0  0  0  0  0
   -2.1443    9.5858    0.0000 C   0  0  0  0  0  0  0  0  0  0  0  0
   -0.9646    8.6593    0.0000 C   0  0  0  0  0  0  0  0  0  0  0  0
   -2.8506    3.7687    0.0000 C   0  0  0  0  0  0  0  0  0  0  0  0
   -1.6504    4.6685    0.0000 C   0  0  0  0  0  0  0  0  0  0  0  0
   -0.3603    5.2733    0.0000 C   0  0  0  0  0  0  0  0  0  0  0  0
    0.5866    6.4367    0.0000 C   0  0  0  0  0  0  0  0  0  0  0  0
    1.1207    5.0350    0.0000 C   0  0  0  0  0  0  0  0  0  0  0  0
    1.4478    3.6513    0.0000 C   0  0  0  0  0  0  0  0  0  0  0  0
    1.4631    2.6302    0.0000 N   0  0  0  0  0  0  0  0  0  0  0  0
   -1.4713    3.1792    0.0000 C   0  0  0  0  0  0  0  0  0  0  0  0
    1.2182    0.7496    0.0000 H   0  0  0  0  0  0  0  0  0  0  0  0
    2.6231    0.8371    0.0000 H   0  0  0  0  0  0  0  0  0  0  0  0
   -1.3712   -0.0908    0.0000 H   0  0  0  0  0  0  0  0  0  0  0  0
    0.1337    0.8164    0.0000 H   0  0  0  0  0  0  0  0  0  0  0  0
    0.4120    1.9894    0.0000 H   0  0  0  0  0  0  0  0  0  0  0  0
    2.1780    0.7271    0.0000 H   0  0  0  0  0  0  0  0  0  0  0  0
    1.8302   -1.1491    0.0000 H   0  0  0  0  0  0  0  0  0  0  0  0
    0.4120   -1.9894    0.0000 H   0  0  0  0  0  0  0  0  0  0  0  0
    0.3247   -2.9321    0.0000 H   0  0  0  0  0  0  0  0  0  0  0  0
   -1.2384   -4.6167    0.0000 H   0  0  0  0  0  0  0  0  0  0  0  0
   -3.6463   -3.8844    0.0000 H   0  0  0  0  0  0  0  0  0  0  0  0
   -4.4645   -1.8995    0.0000 H   0  0  0  0  0  0  0  0  0  0  0  0
   -4.8917   -0.9352    0.0000 H   0  0  0  0  0  0  0  0  0  0  0  0
   -5.0832    0.6237    0.0000 H   0  0  0  0  0  0  0  0  0  0  0  0
   -4.6731    3.8848    0.0000 H   0  0  0  0  0  0  0  0  0  0  0  0
   -5.9785    3.7997    0.0000 H   0  0  0  0  0  0  0  0  0  0  0  0
   -4.5580    5.0735    0.0000 H   0  0  0  0  0  0  0  0  0  0  0  0
   -4.3819    7.2425    0.0000 H   0  0  0  0  0  0  0  0  0  0  0  0
   -0.5665    6.8639    0.0000 H   0  0  0  0  0  0  0  0  0  0  0  0
   -3.8508    8.2354    0.0000 H   0  0  0  0  0  0  0  0  0  0  0  0
   -3.5698   10.0529    0.0000 H   0  0  0  0  0  0  0  0  0  0  0  0
   -1.4368   10.9084    0.0000 H   0  0  0  0  0  0  0  0  0  0  0  0
    0.1526    9.6603    0.0000 H   0  0  0  0  0  0  0  0  0  0  0  0
    0.1118    7.6147    0.0000 H   0  0  0  0  0  0  0  0  0  0  0  0
   -0.8971    5.9656    0.0000 H   0  0  0  0  0  0  0  0  0  0  0  0
    1.0877    4.8816    0.0000 H   0  0  0  0  0  0  0  0  0  0  0  0
   -0.0910    7.7749    0.0000 H   0  0  0  0  0  0  0  0  0  0  0  0
    1.8743    7.2061    0.0000 H   0  0  0  0  0  0  0  0  0  0  0  0
    2.3050    5.9556    0.0000 H   0  0  0  0  0  0  0  0  0  0  0  0
    3.5452    3.4918    0.0000 H   0  0  0  0  0  0  0  0  0  0  0  0
    3.0556    5.0583    0.0000 H   0  0  0  0  0  0  0  0  0  0  0  0
    3.5414    1.9088    0.0000 H   0  0  0  0  0  0  0  0  0  0  0  0
  1  2  1  0
  2  3  1  0
  3  4  1  0
  4  5  1  0
  5  6  1  0
  6  7  1  0
  7  8  1  0
  8  9  1  0
  9 10  1  0
 10 11  1  0
 11 12  1  0
 12 13  1  0
 13 14  1  0
 14 15  1  0
 15 16  1  0
 16 17  1  0
 17 18  1  0
 18 19  1  0
 19 20  1  0
 20 21  1  0
 21 22  1  0
 17 23  1  0
 23 24  1  0
 24 25  1  0
 25 26  1  0
 26 27  1  0
 27 28  1  0
 28 29  1  0
 24 30  1  0
 29  1  1  0
 12  3  1  0
 23 13  1  0
 27 25  1  0
 30  3  1  0
  6  4  1  0
  9  7  1  0
 14 12  1  0
 30 16  1  0
 10  7  1  0
 16 14  1  0
 19 17  1  0
 22 20  1  0
 30 23  1  0
  1 31  1  0
  1 32  1  0
  2 33  1  0
  2 34  1  0
  4 35  1  0
  5 36  1  0
  5 37  1  0
  6 38  1  0
  8 39  1  0
  8 40  1  0
  9 41  1  0
 10 42  1  0
 11 43  1  0
 11 44  1  0
 13 45  1  0
 15 46  1  0
 18 47  1  0
 18 48  1  0
 19 49  1  0
 20 50  1  0
 21 51  1  0
 21 52  1  0
 22 53  1  0
 22 54  1  0
 24 55  1  0
 25 56  1  0
 26 57  1  0
 26 58  1  0
 27 59  1  0
 28 60  1  0
 28 61  1  0
 29 62  1  0
M  END
$$$$
