
     RDKit          3D

 45 51  0  0  0  0  0  0  0  0999 V2000
   28.2964  -32.7763  -13.3129 O   0  0  0  0  0  0  0  0  0  0  0  0
   27.8656  -31.3444  -11.7047 C   0  0  0  0  0  0  0  0  0  0  0  0
   27.7077  -30.3379  -10.3273 N   0  0  0  0  0  0  0  0  0  0  0  0
   26.8050  -29.3129   -9.3601 C   0  0  0  0  0  0  0  0  0  0  0  0
   25.5303  -28.2015   -9.5987 C   0  0  0  0  0  0  0  0  0  0  0  0
   24.8256  -27.2998  -10.9666 C   0  0  0  0  0  0  0  0  0  0  0  0
   25.8888  -32.6673  -12.6354 C   0  0  0  0  0  0  0  0  0  0  0  0
   27.0554  -27.7354   -9.4927 C   0  0  0  0  0  0  0  0  0  0  0  0
   28.2877  -31.3740  -13.3180 C   0  0  0  0  0  0  0  0  0  0  0  0
   25.7746  -31.4588  -13.9059 C   0  0  0  0  0  0  0  0  0  0  0  0
   27.3909  -32.7361  -12.2494 C   0  0  0  0  0  0  0  0  0  0  0  0
   29.1203  -30.1146   -9.9472 C   0  0  0  0  0  0  0  0  0  0  0  0
   24.3890  -31.8907  -14.5800 C   0  0  0  0  0  0  0  0  0  0  0  0
   25.6982  -26.1836  -11.9689 C   0  0  0  0  0  0  0  0  0  0  0  0
   25.5717  -29.8815  -13.6792 C   0  0  0  0  0  0  0  0  0  0  0  0
   25.8063  -24.9203  -13.6498 C   0  0  0  0  0  0  0  0  0  0  0  0
   24.7776  -25.5749  -12.9167 O   0  0  0  0  0  0  0  0  0  0  0  0
   27.2219  -31.1388  -14.5332 C   0  0  0  0  0  0  0  0  0  0  0  0
   27.8909  -30.9963   -6.9558 Br  0  0  0  0  0  0  0  0  0  0  0  0
   30.0728  -31.2335   -9.3824 C   0  0  0  0  0  0  0  0  0  0  0  0
   26.9499  -25.6378  -12.9138 C   0  0  0  0  0  0  0  0  0  0  0  0
   26.0449  -29.5255  -12.2901 C   0  0  0  0  0  0  0  0  0  0  0  0
   32.7089  -30.4940   -8.7480 C   0  0  0  0  0  0  0  0  0  0  0  0
   33.3350  -31.7912   -8.3819 C   0  0  0  0  0  0  0  0  0  0  0  0
   31.5589  -30.8425   -9.8787 C   0  0  0  0  0  0  0  0  0  0  0  0
   33.7511  -29.4758   -9.4731 C   0  0  0  0  0  0  0  0  0  0  0  0
   26.6879  -29.7216   -7.8133 C   0  0  0  0  0  0  0  0  0  0  0  0
   27.5418  -28.8148  -12.5268 C   0  0  0  0  0  0  0  0  0  0  0  0
   34.5557  -31.9085   -7.8746 C   0  0  0  0  0  0  0  0  0  0  0  0
   31.9951  -31.8049  -11.0282 C   0  0  0  0  0  0  0  0  0  0  0  0
   24.6834  -30.2955  -11.4273 C   0  0  0  0  0  0  0  0  0  0  0  0
   24.8428  -31.4938  -10.4183 C   0  0  0  0  0  0  0  0  0  0  0  0
   31.9579  -29.9430   -7.3834 C   0  0  0  0  0  0  0  0  0  0  0  0
   33.2154  -27.5317  -10.4739 C   0  0  0  0  0  0  0  0  0  0  0  0
   23.1742  -31.7440  -13.4857 C   0  0  0  0  0  0  0  0  0  0  0  0
   24.0531  -31.2647  -15.9073 C   0  0  0  0  0  0  0  0  0  0  0  0
   32.5970  -29.1859   -6.1552 C   0  0  0  0  0  0  0  0  0  0  0  0
   33.6565  -28.9180  -10.9342 C   0  0  0  0  0  0  0  0  0  0  0  0
   26.4599  -33.2959   -9.8617 C   0  0  0  0  0  0  0  0  0  0  0  0
   25.3838  -32.8731  -10.9655 C   0  0  0  0  0  0  0  0  0  0  0  0
   25.2176  -31.3799  -16.8774 C   0  0  0  0  0  0  0  0  0  0  0  0
   23.2723  -30.5813  -12.2714 C   0  0  0  0  0  0  0  0  0  0  0  0
   24.3877  -34.0938  -10.8413 C   0  0  0  0  0  0  0  0  0  0  0  0
   33.5383  -27.9610   -9.0438 C   0  0  0  0  0  0  0  0  0  0  0  0
   34.0607  -29.4753   -5.8244 C   0  0  0  0  0  0  0  0  0  0  0  0
  3  2  1  0
  4  3  1  0
  5  4  1  0
  6  5  1  0
  8  4  1  0
  8  5  1  0
  9  1  1  0
  9  2  1  0
 10  7  1  0
 11  1  1  0
 11  2  1  0
 11  7  1  0
 12  3  1  0
 13 10  1  0
 14  6  1  0
 15 10  1  0
 17 14  1  0
 17 16  1  0
 18  9  1  0
 18 10  1  0
 20 12  1  0
 21 14  1  0
 21 16  1  0
 22 15  1  0
 24 23  1  0
 25 20  1  0
 25 23  1  0
 26 23  1  0
 27  4  1  0
 27 19  1  0
 28 22  1  0
 29 24  2  0
 30 25  1  0
 31 22  1  0
 32 31  1  0
 33 23  1  0
 35 13  1  0
 36 13  1  0
 37 33  1  0
 38 26  1  0
 38 34  1  0
 40  7  1  0
 40 32  1  0
 40 39  1  0
 41 36  1  0
 42 31  1  0
 42 35  1  0
 43 40  1  0
 44 26  1  0
 44 34  1  0
 45 37  1  0
M  END
$$$$
