
     RDKit          2D

 19 19  0  0  0  0  0  0  0  0999 V2000
    6.2618    0.3676    0.0000 C   0  0  0  0  0  0  0  0  0  0  0  0
    4.7846    0.6281    0.0000 C   0  0  0  0  0  0  0  0  0  0  0  0
    3.3074    0.8886    0.0000 C   0  0  0  0  0  0  0  0  0  0  0  0
    1.8302    1.1491    0.0000 O   0  0  0  0  0  0  0  0  0  0  0  0
    0.8660    0.0000    0.0000 C   0  0  0  0  0  0  0  0  0  0  0  0
   -0.4330    0.7500    0.0000 C   0  0  0  0  0  0  0  0  0  0  0  0
   -0.4330   -0.7500    0.0000 N   0  0  0  0  0  0  0  0  0  0  0  0
    5.0451    2.1053    0.0000 N   0  0  0  0  0  0  0  0  0  0  0  0
    6.3816    2.7864    0.0000 O   0  0  0  0  0  0  0  0  0  0  0  0
    7.7391    0.1072    0.0000 H   0  0  0  0  0  0  0  0  0  0  0  0
    6.0014   -1.1096    0.0000 H   0  0  0  0  0  0  0  0  0  0  0  0
    6.7004    1.8021    0.0000 H   0  0  0  0  0  0  0  0  0  0  0  0
    4.5242   -0.8491    0.0000 H   0  0  0  0  0  0  0  0  0  0  0  0
    3.0469   -0.5886    0.0000 H   0  0  0  0  0  0  0  0  0  0  0  0
    3.5679    2.3658    0.0000 H   0  0  0  0  0  0  0  0  0  0  0  0
    1.8302   -1.1491    0.0000 H   0  0  0  0  0  0  0  0  0  0  0  0
   -1.9102    1.0105    0.0000 H   0  0  0  0  0  0  0  0  0  0  0  0
    0.0800    2.1595    0.0000 H   0  0  0  0  0  0  0  0  0  0  0  0
   -1.1830   -2.0490    0.0000 H   0  0  0  0  0  0  0  0  0  0  0  0
  1  2  1  0
  2  3  1  0
  3  4  1  0
  4  5  1  0
  5  6  1  0
  6  7  1  0
  2  8  1  0
  8  9  2  0
  7  5  1  0
  1 10  1  0
  1 11  1  0
  1 12  1  0
  2 13  1  0
  3 14  1  0
  3 15  1  0
  5 16  1  0
  6 17  1  0
  6 18  1  0
  7 19  1  0
M  END
$$$$
