
     RDKit          2D

 58 59  0  0  0  0  0  0  0  0999 V2000
   -2.7194   -6.1648    0.0000 C   0  0  0  0  0  0  0  0  0  0  0  0
   -1.4907   -7.0251    0.0000 C   0  0  0  0  0  0  0  0  0  0  0  0
   -1.2302   -8.5023    0.0000 C   0  0  0  0  0  0  0  0  0  0  0  0
   -2.7074   -8.7628    0.0000 F   0  0  0  0  0  0  0  0  0  0  0  0
    0.2470   -8.2419    0.0000 C   0  0  0  0  0  0  0  0  0  0  0  0
   -0.0135   -6.7646    0.0000 C   0  0  0  0  0  0  0  0  0  0  0  0
   -0.2739   -5.2874    0.0000 C   0  0  0  0  0  0  0  0  0  0  0  0
    1.4637   -6.5042    0.0000 C   0  0  0  0  0  0  0  0  0  0  0  0
    2.9410   -6.2437    0.0000 C   0  0  0  0  0  0  0  0  0  0  0  0
    4.4182   -5.9832    0.0000 C   0  0  0  0  0  0  0  0  0  0  0  0
    2.6805   -4.7665    0.0000 C   0  0  0  0  0  0  0  0  0  0  0  0
    2.4200   -3.2893    0.0000 C   0  0  0  0  0  0  0  0  0  0  0  0
    2.1595   -1.8121    0.0000 N   0  0  0  0  0  0  0  0  0  0  0  0
    0.7500   -1.2990    0.0000 C   0  0  0  0  0  0  0  0  0  0  0  0
    1.5000    0.0000    0.0000 C   0  0  0  0  0  0  0  0  0  0  0  0
    0.7500    1.2990    0.0000 C   0  0  0  0  0  0  0  0  0  0  0  0
    0.4895    2.7762    0.0000 C   0  0  0  0  0  0  0  0  0  0  0  0
   -0.7500    1.2990    0.0000 C   0  0  0  0  0  0  0  0  0  0  0  0
   -1.5000    0.0000    0.0000 C   0  0  0  0  0  0  0  0  0  0  0  0
   -2.6491   -0.9642    0.0000 C   0  0  0  0  0  0  0  0  0  0  0  0
   -3.7981   -1.9284    0.0000 C   0  0  0  0  0  0  0  0  0  0  0  0
   -0.7500   -1.2990    0.0000 C   0  0  0  0  0  0  0  0  0  0  0  0
   -4.0789   -6.7987    0.0000 H   0  0  0  0  0  0  0  0  0  0  0  0
   -2.5887   -4.6705    0.0000 H   0  0  0  0  0  0  0  0  0  0  0  0
   -0.9697   -9.9795    0.0000 H   0  0  0  0  0  0  0  0  0  0  0  0
    0.5075   -9.7191    0.0000 H   0  0  0  0  0  0  0  0  0  0  0  0
    1.7450   -8.1634    0.0000 H   0  0  0  0  0  0  0  0  0  0  0  0
   -0.5344   -3.8102    0.0000 H   0  0  0  0  0  0  0  0  0  0  0  0
   -1.0700   -5.3291    0.0000 H   0  0  0  0  0  0  0  0  0  0  0  0
   -1.0363   -5.5205    0.0000 H   0  0  0  0  0  0  0  0  0  0  0  0
    1.0251   -5.0697    0.0000 H   0  0  0  0  0  0  0  0  0  0  0  0
    1.9023   -7.9386    0.0000 H   0  0  0  0  0  0  0  0  0  0  0  0
    3.2014   -7.7209    0.0000 H   0  0  0  0  0  0  0  0  0  0  0  0
    5.8954   -5.7228    0.0000 H   0  0  0  0  0  0  0  0  0  0  0  0
    4.6786   -7.4604    0.0000 H   0  0  0  0  0  0  0  0  0  0  0  0
    4.3397   -4.4853    0.0000 H   0  0  0  0  0  0  0  0  0  0  0  0
    4.1149   -4.3279    0.0000 H   0  0  0  0  0  0  0  0  0  0  0  0
    1.1825   -4.8450    0.0000 H   0  0  0  0  0  0  0  0  0  0  0  0
    0.9856   -3.7279    0.0000 H   0  0  0  0  0  0  0  0  0  0  0  0
    3.8972   -3.0288    0.0000 H   0  0  0  0  0  0  0  0  0  0  0  0
    3.4176   -0.9951    0.0000 H   0  0  0  0  0  0  0  0  0  0  0  0
    0.3114   -2.7335    0.0000 H   0  0  0  0  0  0  0  0  0  0  0  0
    2.6491    0.9642    0.0000 H   0  0  0  0  0  0  0  0  0  0  0  0
    2.7580   -0.8169    0.0000 H   0  0  0  0  0  0  0  0  0  0  0  0
    2.1595    1.8121    0.0000 H   0  0  0  0  0  0  0  0  0  0  0  0
    0.2291    4.2535    0.0000 H   0  0  0  0  0  0  0  0  0  0  0  0
    1.9667    3.0367    0.0000 H   0  0  0  0  0  0  0  0  0  0  0  0
   -1.0084    2.6978    0.0000 H   0  0  0  0  0  0  0  0  0  0  0  0
   -2.1595    1.8121    0.0000 H   0  0  0  0  0  0  0  0  0  0  0  0
   -0.6715    2.7970    0.0000 H   0  0  0  0  0  0  0  0  0  0  0  0
   -2.6491    0.9642    0.0000 H   0  0  0  0  0  0  0  0  0  0  0  0
   -3.6132    0.1849    0.0000 H   0  0  0  0  0  0  0  0  0  0  0  0
   -1.8321   -2.2222    0.0000 H   0  0  0  0  0  0  0  0  0  0  0  0
   -4.9472   -2.8925    0.0000 H   0  0  0  0  0  0  0  0  0  0  0  0
   -4.7623   -0.7793    0.0000 H   0  0  0  0  0  0  0  0  0  0  0  0
   -2.8340   -3.0774    0.0000 H   0  0  0  0  0  0  0  0  0  0  0  0
   -0.4895   -2.7762    0.0000 H   0  0  0  0  0  0  0  0  0  0  0  0
   -2.0865   -1.9801    0.0000 H   0  0  0  0  0  0  0  0  0  0  0  0
  1  2  2  3
  2  3  1  0
  3  4  1  0
  3  5  1  0
  5  6  1  0
  6  7  1  0
  6  8  1  0
  8  9  1  0
  9 10  1  0
  9 11  1  0
 11 12  1  0
 12 13  1  0
 13 14  1  0
 14 15  1  0
 15 16  1  0
 16 17  1  0
 16 18  1  0
 18 19  1  0
 19 20  1  0
 20 21  1  0
 19 22  1  0
  6  2  1  0
 22 14  1  0
  1 23  1  0
  1 24  1  0
  3 25  1  0
  5 26  1  0
  5 27  1  0
  7 28  1  0
  7 29  1  0
  7 30  1  0
  8 31  1  0
  8 32  1  0
  9 33  1  0
 10 34  1  0
 10 35  1  0
 10 36  1  0
 11 37  1  0
 11 38  1  0
 12 39  1  0
 12 40  1  0
 13 41  1  0
 14 42  1  0
 15 43  1  0
 15 44  1  0
 16 45  1  0
 17 46  1  0
 17 47  1  0
 17 48  1  0
 18 49  1  0
 18 50  1  0
 19 51  1  0
 20 52  1  0
 20 53  1  0
 21 54  1  0
 21 55  1  0
 21 56  1  0
 22 57  1  0
 22 58  1  0
M  END
$$$$
