
     RDKit          2D

 59 62  0  0  0  0  0  0  0  0999 V2000
    0.2694    7.8421    0.0000 C   0  0  0  0  0  0  0  0  0  0  0  0
    0.7329    6.4155    0.0000 C   0  0  0  0  0  0  0  0  0  0  0  0
    1.1964    4.9889    0.0000 C   0  0  0  0  0  0  0  0  0  0  0  0
    1.6599    3.5623    0.0000 C   0  0  0  0  0  0  0  0  0  0  0  0
    3.1579    3.6408    0.0000 C   0  0  0  0  0  0  0  0  0  0  0  0
    3.2364    2.1429    0.0000 C   0  0  0  0  0  0  0  0  0  0  0  0
    3.3149    0.6449    0.0000 C   0  0  0  0  0  0  0  0  0  0  0  0
    3.3934   -0.8530    0.0000 C   0  0  0  0  0  0  0  0  0  0  0  0
    3.4719   -2.3510    0.0000 O   0  0  0  0  0  0  0  0  0  0  0  0
    4.8084   -3.0320    0.0000 O   0  0  0  0  0  0  0  0  0  0  0  0
    4.8128    0.7234    0.0000 C   0  0  0  0  0  0  0  0  0  0  0  0
    4.8913   -0.7745    0.0000 O   0  0  0  0  0  0  0  0  0  0  0  0
    6.3108    0.8019    0.0000 C   0  0  0  0  0  0  0  0  0  0  0  0
    7.8087    0.8804    0.0000 C   0  0  0  0  0  0  0  0  0  0  0  0
    9.3067    0.9589    0.0000 O   0  0  0  0  0  0  0  0  0  0  0  0
    1.7385    2.0644    0.0000 C   0  0  0  0  0  0  0  0  0  0  0  0
    0.0181   -0.1126    0.0000 C   0  0  0  0  0  0  0  0  0  0  0  0
   -0.0159    0.0570    0.0000 C   0  0  0  0  0  0  0  0  0  0  0  0
   -0.0000   -1.0607    0.0000 C   0  0  0  0  0  0  0  0  0  0  0  0
    1.0607    0.0000    0.0000 O   0  0  0  0  0  0  0  0  0  0  0  0
    0.0000    1.0607    0.0000 C   0  0  0  0  0  0  0  0  0  0  0  0
   -1.0607    0.0000    0.0000 C   0  0  0  0  0  0  0  0  0  0  0  0
   -2.1213   -1.0607    0.0000 C   0  0  0  0  0  0  0  0  0  0  0  0
   -3.1820   -2.1213    0.0000 C   0  0  0  0  0  0  0  0  0  0  0  0
    0.4019    2.7453    0.0000 C   0  0  0  0  0  0  0  0  0  0  0  0
   -0.1942    9.2686    0.0000 H   0  0  0  0  0  0  0  0  0  0  0  0
    1.6960    8.3056    0.0000 H   0  0  0  0  0  0  0  0  0  0  0  0
   -1.1572    7.3785    0.0000 H   0  0  0  0  0  0  0  0  0  0  0  0
    2.1595    6.8790    0.0000 H   0  0  0  0  0  0  0  0  0  0  0  0
   -0.6937    5.9519    0.0000 H   0  0  0  0  0  0  0  0  0  0  0  0
   -0.2760    4.7027    0.0000 H   0  0  0  0  0  0  0  0  0  0  0  0
    2.5559    5.6228    0.0000 H   0  0  0  0  0  0  0  0  0  0  0  0
    4.6558    3.7193    0.0000 H   0  0  0  0  0  0  0  0  0  0  0  0
    3.2626    5.1371    0.0000 H   0  0  0  0  0  0  0  0  0  0  0  0
    4.7136    2.4034    0.0000 H   0  0  0  0  0  0  0  0  0  0  0  0
    1.8805    0.2063    0.0000 H   0  0  0  0  0  0  0  0  0  0  0  0
    4.8658   -1.1393    0.0000 H   0  0  0  0  0  0  0  0  0  0  0  0
    1.9590   -1.2917    0.0000 H   0  0  0  0  0  0  0  0  0  0  0  0
    4.8869   -4.5299    0.0000 H   0  0  0  0  0  0  0  0  0  0  0  0
    4.9175    2.2198    0.0000 H   0  0  0  0  0  0  0  0  0  0  0  0
    6.1349   -1.6133    0.0000 H   0  0  0  0  0  0  0  0  0  0  0  0
    6.5713   -0.6753    0.0000 H   0  0  0  0  0  0  0  0  0  0  0  0
    6.2323    2.2999    0.0000 H   0  0  0  0  0  0  0  0  0  0  0  0
    7.7302    2.3784    0.0000 H   0  0  0  0  0  0  0  0  0  0  0  0
    7.8872   -0.6175    0.0000 H   0  0  0  0  0  0  0  0  0  0  0  0
   10.1236   -0.2991    0.0000 H   0  0  0  0  0  0  0  0  0  0  0  0
    2.8361    0.0840    0.0000 H   0  0  0  0  0  0  0  0  0  0  0  0
    2.9120   -1.1117    0.0000 H   0  0  0  0  0  0  0  0  0  0  0  0
    1.7385   -2.3701    0.0000 H   0  0  0  0  0  0  0  0  0  0  0  0
   -0.0000   -2.5607    0.0000 H   0  0  0  0  0  0  0  0  0  0  0  0
   -0.3630    2.5161    0.0000 H   0  0  0  0  0  0  0  0  0  0  0  0
   -2.1213    1.0607    0.0000 H   0  0  0  0  0  0  0  0  0  0  0  0
   -3.1820    0.0000    0.0000 H   0  0  0  0  0  0  0  0  0  0  0  0
   -1.0607   -2.1213    0.0000 H   0  0  0  0  0  0  0  0  0  0  0  0
   -4.2426   -3.1820    0.0000 H   0  0  0  0  0  0  0  0  0  0  0  0
   -4.2426   -1.0607    0.0000 H   0  0  0  0  0  0  0  0  0  0  0  0
   -2.1213   -3.1820    0.0000 H   0  0  0  0  0  0  0  0  0  0  0  0
   -0.7638    1.8014    0.0000 H   0  0  0  0  0  0  0  0  0  0  0  0
   -0.7472    3.7095    0.0000 H   0  0  0  0  0  0  0  0  0  0  0  0
  1  2  1  0
  2  3  1  0
  3  4  1  0
  4  5  1  0
  5  6  1  0
  6  7  1  0
  7  8  1  0
  8  9  1  0
  9 10  1  0
  7 11  1  0
 11 12  1  0
 11 13  1  0
 13 14  1  0
 14 15  1  0
  6 16  1  0
 16 17  1  0
 17 18  1  0
 18 19  1  0
 19 20  1  0
 20 21  1  0
 21 22  1  0
 22 23  1  0
 23 24  1  0
 16 25  1  0
 16  4  1  0
 21 17  1  0
 25  4  1  0
 22 19  1  0
  1 26  1  0
  1 27  1  0
  1 28  1  0
  2 29  1  0
  2 30  1  0
  3 31  1  0
  3 32  1  0
  5 33  1  0
  5 34  1  0
  6 35  1  0
  7 36  1  0
  8 37  1  0
  8 38  1  0
 10 39  1  0
 11 40  1  0
 12 41  1  0
 13 42  1  0
 13 43  1  0
 14 44  1  0
 14 45  1  0
 15 46  1  0
 17 47  1  0
 18 48  1  0
 18 49  1  0
 19 50  1  0
 21 51  1  0
 22 52  1  0
 23 53  1  0
 23 54  1  0
 24 55  1  0
 24 56  1  0
 24 57  1  0
 25 58  1  0
 25 59  1  0
M  END
$$$$
