
     RDKit          2D

 35 36  0  0  0  0  0  0  0  0999 V2000
   -8.9177   -2.6866    0.0000 C   0  0  0  0  0  0  0  0  0  0  0  0
   -7.4553   -2.3528    0.0000 C   0  0  0  0  0  0  0  0  0  0  0  0
   -5.9929   -2.0190    0.0000 C   0  0  0  0  0  0  0  0  0  0  0  0
   -4.5305   -1.6852    0.0000 C   0  0  0  0  0  0  0  0  0  0  0  0
   -3.0682   -1.3515    0.0000 C   0  0  0  0  0  0  0  0  0  0  0  0
   -3.7190    0.0000    0.0000 C   0  0  0  0  0  0  0  0  0  0  0  0
   -3.0682    1.3515    0.0000 C   0  0  0  0  0  0  0  0  0  0  0  0
   -1.6058    1.6852    0.0000 C   0  0  0  0  0  0  0  0  0  0  0  0
   -0.4330    0.7500    0.0000 C   0  0  0  0  0  0  0  0  0  0  0  0
    0.8660    0.0000    0.0000 C   0  0  0  0  0  0  0  0  0  0  0  0
   -0.4330   -0.7500    0.0000 C   0  0  0  0  0  0  0  0  0  0  0  0
   -1.6058   -1.6852    0.0000 C   0  0  0  0  0  0  0  0  0  0  0  0
   -6.3267   -0.5566    0.0000 O   0  0  0  0  0  0  0  0  0  0  0  0
   -7.7601   -0.1145    0.0000 C   0  0  0  0  0  0  0  0  0  0  0  0
   -8.0939    1.3479    0.0000 O   0  0  0  0  0  0  0  0  0  0  0  0
  -10.3801   -3.0204    0.0000 H   0  0  0  0  0  0  0  0  0  0  0  0
   -8.5839   -4.1490    0.0000 H   0  0  0  0  0  0  0  0  0  0  0  0
   -9.4273   -1.2758    0.0000 H   0  0  0  0  0  0  0  0  0  0  0  0
   -7.1215   -3.8152    0.0000 H   0  0  0  0  0  0  0  0  0  0  0  0
   -8.1331   -1.0146    0.0000 H   0  0  0  0  0  0  0  0  0  0  0  0
   -5.6592   -3.4814    0.0000 H   0  0  0  0  0  0  0  0  0  0  0  0
   -4.8013   -0.9355    0.0000 H   0  0  0  0  0  0  0  0  0  0  0  0
   -4.1968   -3.1476    0.0000 H   0  0  0  0  0  0  0  0  0  0  0  0
   -3.2510   -2.8403    0.0000 H   0  0  0  0  0  0  0  0  0  0  0  0
   -4.8917    0.9352    0.0000 H   0  0  0  0  0  0  0  0  0  0  0  0
   -4.3982   -0.4173    0.0000 H   0  0  0  0  0  0  0  0  0  0  0  0
   -4.0034    2.5242    0.0000 H   0  0  0  0  0  0  0  0  0  0  0  0
   -1.2720    3.1476    0.0000 H   0  0  0  0  0  0  0  0  0  0  0  0
    0.4120    1.9894    0.0000 H   0  0  0  0  0  0  0  0  0  0  0  0
    1.8302    1.1491    0.0000 H   0  0  0  0  0  0  0  0  0  0  0  0
    1.8302   -1.1491    0.0000 H   0  0  0  0  0  0  0  0  0  0  0  0
    0.4120   -1.9894    0.0000 H   0  0  0  0  0  0  0  0  0  0  0  0
   -2.0870   -3.1059    0.0000 H   0  0  0  0  0  0  0  0  0  0  0  0
   -0.4330   -2.6205    0.0000 H   0  0  0  0  0  0  0  0  0  0  0  0
   -8.9758   -0.9931    0.0000 H   0  0  0  0  0  0  0  0  0  0  0  0
  1  2  1  0
  2  3  1  0
  3  4  1  0
  4  5  1  0
  5  6  1  0
  6  7  1  0
  7  8  2  0
  8  9  1  0
  9 10  1  0
 10 11  1  0
 11 12  1  0
  3 13  1  0
 13 14  1  0
 14 15  2  0
 12  5  1  0
 11  9  1  0
  1 16  1  0
  1 17  1  0
  1 18  1  0
  2 19  1  0
  2 20  1  0
  3 21  1  0
  4 22  1  0
  4 23  1  0
  5 24  1  0
  6 25  1  0
  6 26  1  0
  7 27  1  0
  8 28  1  0
  9 29  1  0
 10 30  1  0
 10 31  1  0
 11 32  1  0
 12 33  1  0
 12 34  1  0
 14 35  1  0
M  END
$$$$
