
     RDKit          2D

 42 44  0  0  0  0  0  0  0  0999 V2000
    4.9996   -4.6618    0.0000 O   0  0  0  0  0  0  0  0  0  0  0  0
    4.4256   -3.2760    0.0000 C   0  0  0  0  0  0  0  0  0  0  0  0
    5.6907   -2.4700    0.0000 C   0  0  0  0  0  0  0  0  0  0  0  0
    4.3602   -1.7774    0.0000 C   0  0  0  0  0  0  0  0  0  0  0  0
    4.8112   -0.3468    0.0000 O   0  0  0  0  0  0  0  0  0  0  0  0
    2.8730   -1.5816    0.0000 C   0  0  0  0  0  0  0  0  0  0  0  0
    3.0688   -0.0944    0.0000 O   0  0  0  0  0  0  0  0  0  0  0  0
    4.4546    0.4796    0.0000 C   0  0  0  0  0  0  0  0  0  0  0  0
    5.5605    1.4930    0.0000 C   0  0  0  0  0  0  0  0  0  0  0  0
    4.1299    1.9440    0.0000 O   0  0  0  0  0  0  0  0  0  0  0  0
    1.3858   -1.3858    0.0000 C   0  0  0  0  0  0  0  0  0  0  0  0
    1.9598    0.0000    0.0000 C   0  0  0  0  0  0  0  0  0  0  0  0
    1.3858    1.3858    0.0000 C   0  0  0  0  0  0  0  0  0  0  0  0
    0.0000    1.9598    0.0000 C   0  0  0  0  0  0  0  0  0  0  0  0
   -1.3858    1.3858    0.0000 C   0  0  0  0  0  0  0  0  0  0  0  0
   -1.9598    0.0000    0.0000 C   0  0  0  0  0  0  0  0  0  0  0  0
   -1.3858   -1.3858    0.0000 C   0  0  0  0  0  0  0  0  0  0  0  0
   -0.0000   -1.9598    0.0000 C   0  0  0  0  0  0  0  0  0  0  0  0
    4.0865   -5.8518    0.0000 H   0  0  0  0  0  0  0  0  0  0  0  0
    3.1530   -3.7266    0.0000 H   0  0  0  0  0  0  0  0  0  0  0  0
    6.6038   -1.2800    0.0000 H   0  0  0  0  0  0  0  0  0  0  0  0
    6.7041   -3.5759    0.0000 H   0  0  0  0  0  0  0  0  0  0  0  0
    6.3043   -0.2031    0.0000 H   0  0  0  0  0  0  0  0  0  0  0  0
    2.5349   -2.8886    0.0000 H   0  0  0  0  0  0  0  0  0  0  0  0
    5.0329   -0.0691    0.0000 H   0  0  0  0  0  0  0  0  0  0  0  0
    6.8530    0.7317    0.0000 H   0  0  0  0  0  0  0  0  0  0  0  0
    6.2531    2.8235    0.0000 H   0  0  0  0  0  0  0  0  0  0  0  0
    1.7614   -2.8380    0.0000 H   0  0  0  0  0  0  0  0  0  0  0  0
    3.2523    0.7613    0.0000 H   0  0  0  0  0  0  0  0  0  0  0  0
    3.4393   -0.2474    0.0000 H   0  0  0  0  0  0  0  0  0  0  0  0
    1.7614    2.8380    0.0000 H   0  0  0  0  0  0  0  0  0  0  0  0
    2.8380    1.7614    0.0000 H   0  0  0  0  0  0  0  0  0  0  0  0
   -0.7613    3.2523    0.0000 H   0  0  0  0  0  0  0  0  0  0  0  0
    0.7613    3.2523    0.0000 H   0  0  0  0  0  0  0  0  0  0  0  0
   -2.8380    1.7614    0.0000 H   0  0  0  0  0  0  0  0  0  0  0  0
   -1.7614    2.8380    0.0000 H   0  0  0  0  0  0  0  0  0  0  0  0
   -3.2523   -0.7613    0.0000 H   0  0  0  0  0  0  0  0  0  0  0  0
   -3.2523    0.7613    0.0000 H   0  0  0  0  0  0  0  0  0  0  0  0
   -1.7614   -2.8380    0.0000 H   0  0  0  0  0  0  0  0  0  0  0  0
   -2.8380   -1.7614    0.0000 H   0  0  0  0  0  0  0  0  0  0  0  0
    0.7613   -3.2523    0.0000 H   0  0  0  0  0  0  0  0  0  0  0  0
   -0.7613   -3.2523    0.0000 H   0  0  0  0  0  0  0  0  0  0  0  0
  1  2  1  0
  2  3  1  0
  3  4  1  0
  4  5  1  1
  4  6  1  0
  6  7  1  0
  7  8  1  0
  8  9  1  0
  9 10  1  0
  6 11  1  0
 11 12  1  0
 12 13  1  0
 13 14  1  0
 14 15  1  0
 15 16  1  0
 16 17  1  0
 17 18  1  0
  4  2  1  0
 10  8  1  0
 18 11  1  0
  1 19  1  0
  2 20  1  1
  3 21  1  0
  3 22  1  0
  5 23  1  0
  6 24  1  6
  8 25  1  6
  9 26  1  0
  9 27  1  0
 11 28  1  0
 12 29  1  0
 12 30  1  0
 13 31  1  0
 13 32  1  0
 14 33  1  0
 14 34  1  0
 15 35  1  0
 15 36  1  0
 16 37  1  0
 16 38  1  0
 17 39  1  0
 17 40  1  0
 18 41  1  0
 18 42  1  0
M  END
$$$$
