
     RDKit          2D

101107  0  0  0  0  0  0  0  0999 V2000
    3.4655    9.4617    0.0000 C   0  0  0  0  0  0  0  0  0  0  0  0
    2.9175   10.8580    0.0000 C   0  0  0  0  0  0  0  0  0  0  0  0
    3.8527   12.0307    0.0000 C   0  0  0  0  0  0  0  0  0  0  0  0
    1.4342   11.0815    0.0000 C   0  0  0  0  0  0  0  0  0  0  0  0
   -0.0490   11.3051    0.0000 C   0  0  0  0  0  0  0  0  0  0  0  0
   -1.5323   11.5287    0.0000 C   0  0  0  0  0  0  0  0  0  0  0  0
   -3.0155   11.7522    0.0000 C   0  0  0  0  0  0  0  0  0  0  0  0
   -4.4988   11.9758    0.0000 C   0  0  0  0  0  0  0  0  0  0  0  0
   -3.2391   10.2690    0.0000 C   0  0  0  0  0  0  0  0  0  0  0  0
   -3.4627    8.7857    0.0000 C   0  0  0  0  0  0  0  0  0  0  0  0
   -4.9622    8.7483    0.0000 C   0  0  0  0  0  0  0  0  0  0  0  0
   -6.4617    8.7109    0.0000 C   0  0  0  0  0  0  0  0  0  0  0  0
   -7.9613    8.6736    0.0000 C   0  0  0  0  0  0  0  0  0  0  0  0
   -6.4991   10.2105    0.0000 N   0  0  0  0  0  0  0  0  0  0  0  0
   -6.4243    7.2114    0.0000 C   0  0  0  0  0  0  0  0  0  0  0  0
   -7.9076    7.4350    0.0000 C   0  0  0  0  0  0  0  0  0  0  0  0
   -8.8428    6.2622    0.0000 C   0  0  0  0  0  0  0  0  0  0  0  0
   -8.2948    4.8659    0.0000 C   0  0  0  0  0  0  0  0  0  0  0  0
   -8.2574    3.3664    0.0000 C   0  0  0  0  0  0  0  0  0  0  0  0
   -8.2200    1.8669    0.0000 C   0  0  0  0  0  0  0  0  0  0  0  0
   -9.7569    3.3290    0.0000 C   0  0  0  0  0  0  0  0  0  0  0  0
   -6.8115    4.6424    0.0000 C   0  0  0  0  0  0  0  0  0  0  0  0
   -6.2635    3.2460    0.0000 N   0  0  0  0  0  0  0  0  0  0  0  0
   -4.7803    3.0225    0.0000 C   0  0  0  0  0  0  0  0  0  0  0  0
   -2.7255    3.2207    0.0000 C   0  0  0  0  0  0  0  0  0  0  0  0
   -1.2297    3.3328    0.0000 S   0  0  0  0  0  0  0  0  0  0  0  0
   -0.2094    2.2332    0.0000 N   0  0  0  0  0  0  0  0  0  0  0  0
    1.2239    2.6754    0.0000 O   0  0  0  0  0  0  0  0  0  0  0  0
   -0.4330    0.7500    0.0000 C   0  0  0  0  0  0  0  0  0  0  0  0
    0.8660    0.0000    0.0000 N   0  0  0  0  0  0  0  0  0  0  0  0
   -0.4330   -0.7500    0.0000 C   0  0  0  0  0  0  0  0  0  0  0  0
   -0.4330   -2.2500    0.0000 C   0  0  0  0  0  0  0  0  0  0  0  0
   -1.7321    0.0000    0.0000 C   0  0  0  0  0  0  0  0  0  0  0  0
   -3.1284    0.5480    0.0000 C   0  0  0  0  0  0  0  0  0  0  0  0
   -4.5617    0.1059    0.0000 C   0  0  0  0  0  0  0  0  0  0  0  0
   -5.0039    1.5392    0.0000 C   0  0  0  0  0  0  0  0  0  0  0  0
   -3.5705    1.9814    0.0000 C   0  0  0  0  0  0  0  0  0  0  0  0
   -5.8763    5.8151    0.0000 N   0  0  0  0  0  0  0  0  0  0  0  0
   -2.0408    8.3080    0.0000 C   0  0  0  0  0  0  0  0  0  0  0  0
   -3.1654    7.3155    0.0000 C   0  0  0  0  0  0  0  0  0  0  0  0
   -4.5617    6.7675    0.0000 F   0  0  0  0  0  0  0  0  0  0  0  0
   -2.3833    6.0355    0.0000 C   0  0  0  0  0  0  0  0  0  0  0  0
   -1.6011    4.7556    0.0000 C   0  0  0  0  0  0  0  0  0  0  0  0
   -3.7490    5.4152    0.0000 F   0  0  0  0  0  0  0  0  0  0  0  0
   -1.0175    6.6558    0.0000 F   0  0  0  0  0  0  0  0  0  0  0  0
    4.9487    9.2381    0.0000 H   0  0  0  0  0  0  0  0  0  0  0  0
    2.5302    8.2889    0.0000 H   0  0  0  0  0  0  0  0  0  0  0  0
    4.7879   13.2035    0.0000 H   0  0  0  0  0  0  0  0  0  0  0  0
    5.0254   11.0955    0.0000 H   0  0  0  0  0  0  0  0  0  0  0  0
    2.6799   12.9660    0.0000 H   0  0  0  0  0  0  0  0  0  0  0  0
    1.6578   12.5648    0.0000 H   0  0  0  0  0  0  0  0  0  0  0  0
    1.2106    9.5983    0.0000 H   0  0  0  0  0  0  0  0  0  0  0  0
   -0.2726    9.8219    0.0000 H   0  0  0  0  0  0  0  0  0  0  0  0
    0.1745   12.7884    0.0000 H   0  0  0  0  0  0  0  0  0  0  0  0
   -1.3087   13.0119    0.0000 H   0  0  0  0  0  0  0  0  0  0  0  0
   -1.3903   10.0354    0.0000 H   0  0  0  0  0  0  0  0  0  0  0  0
   -2.7920   13.2355    0.0000 H   0  0  0  0  0  0  0  0  0  0  0  0
   -5.9820   12.1994    0.0000 H   0  0  0  0  0  0  0  0  0  0  0  0
   -4.2752   13.4590    0.0000 H   0  0  0  0  0  0  0  0  0  0  0  0
   -4.7128   11.2079    0.0000 H   0  0  0  0  0  0  0  0  0  0  0  0
   -4.0070   10.4830    0.0000 H   0  0  0  0  0  0  0  0  0  0  0  0
   -1.7558   10.0454    0.0000 H   0  0  0  0  0  0  0  0  0  0  0  0
   -5.1821   10.2321    0.0000 H   0  0  0  0  0  0  0  0  0  0  0  0
   -4.9248    7.2488    0.0000 H   0  0  0  0  0  0  0  0  0  0  0  0
   -9.4542    8.8192    0.0000 H   0  0  0  0  0  0  0  0  0  0  0  0
   -8.1812   10.1573    0.0000 H   0  0  0  0  0  0  0  0  0  0  0  0
   -8.2878    7.2095    0.0000 H   0  0  0  0  0  0  0  0  0  0  0  0
   -7.7192   11.0831    0.0000 H   0  0  0  0  0  0  0  0  0  0  0  0
   -5.3241   11.1428    0.0000 H   0  0  0  0  0  0  0  0  0  0  0  0
   -4.9541    7.5086    0.0000 H   0  0  0  0  0  0  0  0  0  0  0  0
   -9.3025    7.9864    0.0000 H   0  0  0  0  0  0  0  0  0  0  0  0
   -7.7881    8.9302    0.0000 H   0  0  0  0  0  0  0  0  0  0  0  0
  -10.2085    5.6419    0.0000 H   0  0  0  0  0  0  0  0  0  0  0  0
   -9.8353    7.3869    0.0000 H   0  0  0  0  0  0  0  0  0  0  0  0
   -9.7903    4.7501    0.0000 H   0  0  0  0  0  0  0  0  0  0  0  0
   -6.7934    3.0398    0.0000 H   0  0  0  0  0  0  0  0  0  0  0  0
   -8.1826    0.3673    0.0000 H   0  0  0  0  0  0  0  0  0  0  0  0
   -9.7038    1.6469    0.0000 H   0  0  0  0  0  0  0  0  0  0  0  0
   -6.7205    1.9043    0.0000 H   0  0  0  0  0  0  0  0  0  0  0  0
  -11.2565    3.2916    0.0000 H   0  0  0  0  0  0  0  0  0  0  0  0
   -9.9026    1.8361    0.0000 H   0  0  0  0  0  0  0  0  0  0  0  0
  -10.1561    4.7749    0.0000 H   0  0  0  0  0  0  0  0  0  0  0  0
   -7.1988    2.0733    0.0000 H   0  0  0  0  0  0  0  0  0  0  0  0
   -4.5567    4.5057    0.0000 H   0  0  0  0  0  0  0  0  0  0  0  0
   -3.7676    4.2997    0.0000 H   0  0  0  0  0  0  0  0  0  0  0  0
    1.5577    4.1378    0.0000 H   0  0  0  0  0  0  0  0  0  0  0  0
    2.3660    0.0000    0.0000 H   0  0  0  0  0  0  0  0  0  0  0  0
   -0.4330   -3.7500    0.0000 H   0  0  0  0  0  0  0  0  0  0  0  0
   -1.9330   -2.2500    0.0000 H   0  0  0  0  0  0  0  0  0  0  0  0
    1.0670   -2.2500    0.0000 H   0  0  0  0  0  0  0  0  0  0  0  0
   -2.2133   -1.4207    0.0000 H   0  0  0  0  0  0  0  0  0  0  0  0
   -3.3667   -0.9329    0.0000 H   0  0  0  0  0  0  0  0  0  0  0  0
   -5.9951   -0.3363    0.0000 H   0  0  0  0  0  0  0  0  0  0  0  0
   -4.1196   -1.3275    0.0000 H   0  0  0  0  0  0  0  0  0  0  0  0
   -6.3300    2.2401    0.0000 H   0  0  0  0  0  0  0  0  0  0  0  0
   -3.2622    0.5134    0.0000 H   0  0  0  0  0  0  0  0  0  0  0  0
   -1.0259    9.4126    0.0000 H   0  0  0  0  0  0  0  0  0  0  0  0
   -0.7628    7.5227    0.0000 H   0  0  0  0  0  0  0  0  0  0  0  0
   -0.5325    3.7030    0.0000 H   0  0  0  0  0  0  0  0  0  0  0  0
   -2.7762    3.8233    0.0000 H   0  0  0  0  0  0  0  0  0  0  0  0
   -0.3212    5.5378    0.0000 H   0  0  0  0  0  0  0  0  0  0  0  0
  1  2  2  3
  2  3  1  0
  2  4  1  0
  4  5  1  0
  5  6  1  0
  6  7  1  0
  7  8  1  0
  7  9  1  0
 10  9  1  6
 10 11  1  0
 11 12  1  0
 12 13  1  0
 12 14  1  1
 12 15  1  0
 15 16  1  0
 16 17  1  0
 17 18  1  0
 18 19  1  0
 19 20  1  0
 19 21  1  0
 18 22  1  0
 22 23  1  0
 23 24  1  0
 24 25  1  0
 25 26  1  0
 26 27  1  0
 27 28  1  0
 29 27  1  6
 29 30  1  0
 30 31  1  0
 31 32  1  6
 31 33  1  0
 33 34  1  0
 34 35  1  0
 35 36  1  0
 36 37  1  0
 22 38  2  0
 10 39  1  0
 39 40  1  0
 40 41  1  1
 40 42  1  0
 42 43  1  0
 42 44  1  0
 42 45  1  0
 40 10  1  0
 38 15  1  0
 36 24  1  0
 37 25  1  0
 31 29  1  0
 37 34  1  0
 33 29  1  0
  1 46  1  0
  1 47  1  0
  3 48  1  0
  3 49  1  0
  3 50  1  0
  4 51  1  0
  4 52  1  0
  5 53  1  0
  5 54  1  0
  6 55  1  0
  6 56  1  0
  7 57  1  6
  8 58  1  0
  8 59  1  0
  8 60  1  0
  9 61  1  0
  9 62  1  0
 11 63  1  0
 11 64  1  0
 13 65  1  0
 13 66  1  0
 13 67  1  0
 14 68  1  0
 14 69  1  0
 15 70  1  6
 16 71  1  0
 16 72  1  0
 17 73  1  0
 17 74  1  0
 18 75  1  6
 19 76  1  0
 20 77  1  0
 20 78  1  0
 20 79  1  0
 21 80  1  0
 21 81  1  0
 21 82  1  0
 23 83  1  0
 24 84  1  6
 25 85  1  6
 28 86  1  0
 30 87  1  0
 32 88  1  0
 32 89  1  0
 32 90  1  0
 33 91  1  1
 34 92  1  6
 35 93  1  0
 35 94  1  0
 36 95  1  6
 37 96  1  6
 39 97  1  0
 39 98  1  0
 43 99  1  0
 43100  1  0
 43101  1  0
M  END
$$$$
