
     RDKit          2D

 57 63  0  0  0  0  0  0  0  0999 V2000
   -5.8073   -4.7605    0.0000 C   0  0  0  0  0  0  0  0  0  0  0  0
   -4.5083   -5.5105    0.0000 C   0  0  0  0  0  0  0  0  0  0  0  0
   -3.2093   -4.7605    0.0000 C   0  0  0  0  0  0  0  0  0  0  0  0
   -2.2451   -5.9095    0.0000 C   0  0  0  0  0  0  0  0  0  0  0  0
   -1.7321   -4.5000    0.0000 C   0  0  0  0  0  0  0  0  0  0  0  0
   -1.7321   -3.0000    0.0000 C   0  0  0  0  0  0  0  0  0  0  0  0
   -0.4330   -2.2500    0.0000 C   0  0  0  0  0  0  0  0  0  0  0  0
   -0.4330   -0.7500    0.0000 C   0  0  0  0  0  0  0  0  0  0  0  0
   -1.7321    0.0000    0.0000 C   0  0  0  0  0  0  0  0  0  0  0  0
   -2.6962    1.1491    0.0000 C   0  0  0  0  0  0  0  0  0  0  0  0
   -3.2093    2.5586    0.0000 C   0  0  0  0  0  0  0  0  0  0  0  0
   -1.7321    2.2981    0.0000 C   0  0  0  0  0  0  0  0  0  0  0  0
   -1.2190    3.7077    0.0000 C   0  0  0  0  0  0  0  0  0  0  0  0
   -1.2190    5.2077    0.0000 C   0  0  0  0  0  0  0  0  0  0  0  0
   -2.5181    4.4577    0.0000 C   0  0  0  0  0  0  0  0  0  0  0  0
   -0.4330    0.7500    0.0000 C   0  0  0  0  0  0  0  0  0  0  0  0
    0.8660    0.0000    0.0000 C   0  0  0  0  0  0  0  0  0  0  0  0
    1.8302    1.1491    0.0000 O   0  0  0  0  0  0  0  0  0  0  0  0
   -0.2548   -4.7605    0.0000 N   0  0  0  0  0  0  0  0  0  0  0  0
    0.2582   -6.1700    0.0000 C   0  0  0  0  0  0  0  0  0  0  0  0
    0.7712   -7.5796    0.0000 C   0  0  0  0  0  0  0  0  0  0  0  0
   -0.1930   -8.7286    0.0000 C   0  0  0  0  0  0  0  0  0  0  0  0
    0.3201  -10.1382    0.0000 C   0  0  0  0  0  0  0  0  0  0  0  0
   -0.9790  -10.8882    0.0000 C   0  0  0  0  0  0  0  0  0  0  0  0
   -0.9790  -12.3882    0.0000 C   0  0  0  0  0  0  0  0  0  0  0  0
    0.3201  -11.6382    0.0000 C   0  0  0  0  0  0  0  0  0  0  0  0
   -7.1064   -5.5105    0.0000 H   0  0  0  0  0  0  0  0  0  0  0  0
   -5.8073   -3.2605    0.0000 H   0  0  0  0  0  0  0  0  0  0  0  0
   -4.5083   -7.0105    0.0000 H   0  0  0  0  0  0  0  0  0  0  0  0
   -3.7223   -3.3509    0.0000 H   0  0  0  0  0  0  0  0  0  0  0  0
   -1.0472   -6.8123    0.0000 H   0  0  0  0  0  0  0  0  0  0  0  0
   -3.2093   -7.0586    0.0000 H   0  0  0  0  0  0  0  0  0  0  0  0
   -3.0311   -2.2500    0.0000 H   0  0  0  0  0  0  0  0  0  0  0  0
    0.9478   -2.8361    0.0000 H   0  0  0  0  0  0  0  0  0  0  0  0
   -2.6962   -1.1491    0.0000 H   0  0  0  0  0  0  0  0  0  0  0  0
   -3.9953    0.3991    0.0000 H   0  0  0  0  0  0  0  0  0  0  0  0
   -4.6865    2.2981    0.0000 H   0  0  0  0  0  0  0  0  0  0  0  0
   -3.3064    3.3498    0.0000 H   0  0  0  0  0  0  0  0  0  0  0  0
   -0.3513    1.7121    0.0000 H   0  0  0  0  0  0  0  0  0  0  0  0
    0.2582    3.4472    0.0000 H   0  0  0  0  0  0  0  0  0  0  0  0
    0.2582    5.4681    0.0000 H   0  0  0  0  0  0  0  0  0  0  0  0
   -1.7321    6.6172    0.0000 H   0  0  0  0  0  0  0  0  0  0  0  0
   -3.4822    5.6067    0.0000 H   0  0  0  0  0  0  0  0  0  0  0  0
   -3.1011    3.9140    0.0000 H   0  0  0  0  0  0  0  0  0  0  0  0
   -0.2502    2.2388    0.0000 H   0  0  0  0  0  0  0  0  0  0  0  0
    1.8302   -1.1491    0.0000 H   0  0  0  0  0  0  0  0  0  0  0  0
    3.3074    0.8886    0.0000 H   0  0  0  0  0  0  0  0  0  0  0  0
    0.8422   -3.7375    0.0000 H   0  0  0  0  0  0  0  0  0  0  0  0
   -1.0783   -6.8510    0.0000 H   0  0  0  0  0  0  0  0  0  0  0  0
    1.6677   -5.6570    0.0000 H   0  0  0  0  0  0  0  0  0  0  0  0
    2.2484   -7.8400    0.0000 H   0  0  0  0  0  0  0  0  0  0  0  0
   -1.6702   -8.4681    0.0000 H   0  0  0  0  0  0  0  0  0  0  0  0
    1.7973   -9.8777    0.0000 H   0  0  0  0  0  0  0  0  0  0  0  0
   -2.2780  -10.1382    0.0000 H   0  0  0  0  0  0  0  0  0  0  0  0
   -2.4562  -12.6486    0.0000 H   0  0  0  0  0  0  0  0  0  0  0  0
   -0.4659  -13.7977    0.0000 H   0  0  0  0  0  0  0  0  0  0  0  0
    1.6191  -12.3882    0.0000 H   0  0  0  0  0  0  0  0  0  0  0  0
  1  2  2  3
  2  3  1  0
  3  4  1  0
  4  5  1  0
  5  6  1  0
  6  7  2  3
  8  7  1  1
  8  9  1  0
  9 10  1  0
 10 11  1  0
 11 12  1  0
 12 13  1  0
 13 14  1  0
 14 15  1  0
  9 16  1  0
 16 17  1  0
 17 18  1  0
  5 19  1  6
 19 20  1  0
 20 21  1  0
 21 22  2  3
 22 23  1  0
 23 24  1  0
 24 25  1  0
 25 26  1  0
  5  3  1  0
 16  8  1  0
 26 23  1  0
 17  8  1  0
 26 24  1  0
 12 10  1  0
 15 13  1  0
  1 27  1  0
  1 28  1  0
  2 29  1  0
  3 30  1  6
  4 31  1  0
  4 32  1  0
  6 33  1  0
  7 34  1  0
  9 35  1  6
 10 36  1  6
 11 37  1  0
 11 38  1  0
 12 39  1  1
 13 40  1  0
 14 41  1  0
 14 42  1  0
 15 43  1  0
 15 44  1  0
 16 45  1  6
 17 46  1  6
 18 47  1  0
 19 48  1  0
 20 49  1  0
 20 50  1  0
 21 51  1  0
 22 52  1  0
 23 53  1  6
 24 54  1  1
 25 55  1  0
 25 56  1  0
 26 57  1  1
M  END
$$$$
