
     RDKit          2D

105113  0  0  0  0  0  0  0  0999 V2000
    0.7715    5.4504    0.0000 C   0  0  0  0  0  0  0  0  0  0  0  0
    0.4597    3.9831    0.0000 C   0  0  0  0  0  0  0  0  0  0  0  0
    1.5744    2.9794    0.0000 C   0  0  0  0  0  0  0  0  0  0  0  0
    2.6891    1.9757    0.0000 C   0  0  0  0  0  0  0  0  0  0  0  0
    0.5707    1.8647    0.0000 C   0  0  0  0  0  0  0  0  0  0  0  0
   -0.4330    0.7500    0.0000 C   0  0  0  0  0  0  0  0  0  0  0  0
    0.8660    0.0000    0.0000 C   0  0  0  0  0  0  0  0  0  0  0  0
   -0.4330   -0.7500    0.0000 N   0  0  0  0  0  0  0  0  0  0  0  0
   -1.3147   -1.9635    0.0000 C   0  0  0  0  0  0  0  0  0  0  0  0
   -0.9227   -2.9844    0.0000 Cl  0  0  0  0  0  0  0  0  0  0  0  0
   -2.7413   -2.4271    0.0000 C   0  0  0  0  0  0  0  0  0  0  0  0
   -2.7413   -3.9271    0.0000 C   0  0  0  0  0  0  0  0  0  0  0  0
   -1.2495   -3.7703    0.0000 C   0  0  0  0  0  0  0  0  0  0  0  0
    0.2060   -4.1331    0.0000 C   0  0  0  0  0  0  0  0  0  0  0  0
    0.8161   -2.7628    0.0000 C   0  0  0  0  0  0  0  0  0  0  0  0
   -0.8360   -5.2122    0.0000 C   0  0  0  0  0  0  0  0  0  0  0  0
    0.0456   -6.4257    0.0000 C   0  0  0  0  0  0  0  0  0  0  0  0
   -4.1679   -4.3906    0.0000 C   0  0  0  0  0  0  0  0  0  0  0  0
   -5.0495   -3.1771    0.0000 C   0  0  0  0  0  0  0  0  0  0  0  0
   -6.1102   -2.1164    0.0000 C   0  0  0  0  0  0  0  0  0  0  0  0
   -7.1542   -1.0151    0.0000 C   0  0  0  0  0  0  0  0  0  0  0  0
   -6.2344    0.1698    0.0000 C   0  0  0  0  0  0  0  0  0  0  0  0
   -5.0495   -0.7500    0.0000 C   0  0  0  0  0  0  0  0  0  0  0  0
   -5.0495    0.7500    0.0000 O   0  0  0  0  0  0  0  0  0  0  0  0
   -4.1679    1.9635    0.0000 C   0  0  0  0  0  0  0  0  0  0  0  0
   -3.0563    0.9563    0.0000 C   0  0  0  0  0  0  0  0  0  0  0  0
    0.1119    1.5000    0.0000 C   0  0  0  0  0  0  0  0  0  0  0  0
    0.4238    0.0328    0.0000 C   0  0  0  0  0  0  0  0  0  0  0  0
    1.8503   -0.4307    0.0000 C   0  0  0  0  0  0  0  0  0  0  0  0
   -0.6910   -0.9709    0.0000 C   0  0  0  0  0  0  0  0  0  0  0  0
   -1.8057   -1.9746    0.0000 C   0  0  0  0  0  0  0  0  0  0  0  0
   -2.9204   -2.9783    0.0000 N   0  0  0  0  0  0  0  0  0  0  0  0
    1.2266    2.5037    0.0000 C   0  0  0  0  0  0  0  0  0  0  0  0
    0.9147    3.9709    0.0000 C   0  0  0  0  0  0  0  0  0  0  0  0
   -0.5118    4.4344    0.0000 C   0  0  0  0  0  0  0  0  0  0  0  0
   -1.6939    5.3579    0.0000 C   0  0  0  0  0  0  0  0  0  0  0  0
   -2.8759    6.2814    0.0000 C   0  0  0  0  0  0  0  0  0  0  0  0
   -4.0579    7.2049    0.0000 C   0  0  0  0  0  0  0  0  0  0  0  0
   -0.7704    6.5400    0.0000 C   0  0  0  0  0  0  0  0  0  0  0  0
    0.1531    7.7220    0.0000 C   0  0  0  0  0  0  0  0  0  0  0  0
   -1.8310    7.6006    0.0000 F   0  0  0  0  0  0  0  0  0  0  0  0
   -1.6266    3.4307    0.0000 C   0  0  0  0  0  0  0  0  0  0  0  0
   -2.7413    2.4271    0.0000 C   0  0  0  0  0  0  0  0  0  0  0  0
   -1.3147    1.9635    0.0000 C   0  0  0  0  0  0  0  0  0  0  0  0
   -4.1679   -1.9635    0.0000 C   0  0  0  0  0  0  0  0  0  0  0  0
    0.0907    6.7869    0.0000 H   0  0  0  0  0  0  0  0  0  0  0  0
    2.1981    5.9139    0.0000 H   0  0  0  0  0  0  0  0  0  0  0  0
   -1.0383    4.0618    0.0000 H   0  0  0  0  0  0  0  0  0  0  0  0
    2.7065    3.9635    0.0000 H   0  0  0  0  0  0  0  0  0  0  0  0
    3.8038    0.9720    0.0000 H   0  0  0  0  0  0  0  0  0  0  0  0
    3.8212    2.9598    0.0000 H   0  0  0  0  0  0  0  0  0  0  0  0
    3.5494    3.2045    0.0000 H   0  0  0  0  0  0  0  0  0  0  0  0
   -0.5440    2.8684    0.0000 H   0  0  0  0  0  0  0  0  0  0  0  0
    1.6854    0.8610    0.0000 H   0  0  0  0  0  0  0  0  0  0  0  0
    2.0796    0.8816    0.0000 H   0  0  0  0  0  0  0  0  0  0  0  0
    2.0796   -0.8816    0.0000 H   0  0  0  0  0  0  0  0  0  0  0  0
    0.1817   -2.0681    0.0000 H   0  0  0  0  0  0  0  0  0  0  0  0
   -4.0532   -3.1542    0.0000 H   0  0  0  0  0  0  0  0  0  0  0  0
   -2.6106   -5.4213    0.0000 H   0  0  0  0  0  0  0  0  0  0  0  0
   -0.4545   -2.4983    0.0000 H   0  0  0  0  0  0  0  0  0  0  0  0
    1.5425   -4.8141    0.0000 H   0  0  0  0  0  0  0  0  0  0  0  0
    1.7396   -1.5809    0.0000 H   0  0  0  0  0  0  0  0  0  0  0  0
    2.1864   -3.3729    0.0000 H   0  0  0  0  0  0  0  0  0  0  0  0
    0.0437   -1.4770    0.0000 H   0  0  0  0  0  0  0  0  0  0  0  0
   -2.0940   -6.0291    0.0000 H   0  0  0  0  0  0  0  0  0  0  0  0
    0.9273   -7.6392    0.0000 H   0  0  0  0  0  0  0  0  0  0  0  0
   -1.1679   -7.3074    0.0000 H   0  0  0  0  0  0  0  0  0  0  0  0
    1.3576   -5.6985    0.0000 H   0  0  0  0  0  0  0  0  0  0  0  0
   -3.5578   -5.7609    0.0000 H   0  0  0  0  0  0  0  0  0  0  0  0
   -5.4669   -5.1406    0.0000 H   0  0  0  0  0  0  0  0  0  0  0  0
   -6.5384   -3.3599    0.0000 H   0  0  0  0  0  0  0  0  0  0  0  0
   -7.2922   -3.0399    0.0000 H   0  0  0  0  0  0  0  0  0  0  0  0
   -8.3391   -0.0953    0.0000 H   0  0  0  0  0  0  0  0  0  0  0  0
   -8.0740   -2.2000    0.0000 H   0  0  0  0  0  0  0  0  0  0  0  0
   -5.6287    1.5420    0.0000 H   0  0  0  0  0  0  0  0  0  0  0  0
   -7.4193    1.0896    0.0000 H   0  0  0  0  0  0  0  0  0  0  0  0
   -5.0495    3.1771    0.0000 H   0  0  0  0  0  0  0  0  0  0  0  0
   -4.2878    0.0999    0.0000 H   0  0  0  0  0  0  0  0  0  0  0  0
   -2.1785   -0.2600    0.0000 H   0  0  0  0  0  0  0  0  0  0  0  0
    2.5080   -1.7789    0.0000 H   0  0  0  0  0  0  0  0  0  0  0  0
    2.9651    0.5729    0.0000 H   0  0  0  0  0  0  0  0  0  0  0  0
   -1.5513    0.2578    0.0000 H   0  0  0  0  0  0  0  0  0  0  0  0
    0.5526   -1.8096    0.0000 H   0  0  0  0  0  0  0  0  0  0  0  0
   -2.9378   -0.9906    0.0000 H   0  0  0  0  0  0  0  0  0  0  0  0
   -0.8020   -3.0893    0.0000 H   0  0  0  0  0  0  0  0  0  0  0  0
   -4.4183   -3.0569    0.0000 H   0  0  0  0  0  0  0  0  0  0  0  0
   -2.9728   -4.4774    0.0000 H   0  0  0  0  0  0  0  0  0  0  0  0
    2.6174    3.0656    0.0000 H   0  0  0  0  0  0  0  0  0  0  0  0
    2.3057    1.4618    0.0000 H   0  0  0  0  0  0  0  0  0  0  0  0
    1.6421    5.2828    0.0000 H   0  0  0  0  0  0  0  0  0  0  0  0
    2.3963    4.2056    0.0000 H   0  0  0  0  0  0  0  0  0  0  0  0
   -0.1490    5.8899    0.0000 H   0  0  0  0  0  0  0  0  0  0  0  0
   -2.6173    4.1759    0.0000 H   0  0  0  0  0  0  0  0  0  0  0  0
   -2.1034    7.5672    0.0000 H   0  0  0  0  0  0  0  0  0  0  0  0
   -3.7994    5.0994    0.0000 H   0  0  0  0  0  0  0  0  0  0  0  0
   -5.2399    8.1284    0.0000 H   0  0  0  0  0  0  0  0  0  0  0  0
   -4.9814    6.0229    0.0000 H   0  0  0  0  0  0  0  0  0  0  0  0
   -3.1344    8.3869    0.0000 H   0  0  0  0  0  0  0  0  0  0  0  0
    0.7069    6.2796    0.0000 H   0  0  0  0  0  0  0  0  0  0  0  0
    1.0766    8.9040    0.0000 H   0  0  0  0  0  0  0  0  0  0  0  0
   -1.0289    8.6455    0.0000 H   0  0  0  0  0  0  0  0  0  0  0  0
    1.3351    6.7985    0.0000 H   0  0  0  0  0  0  0  0  0  0  0  0
   -0.2900    2.7499    0.0000 H   0  0  0  0  0  0  0  0  0  0  0  0
   -3.4913    3.7261    0.0000 H   0  0  0  0  0  0  0  0  0  0  0  0
   -3.8817   -0.4911    0.0000 H   0  0  0  0  0  0  0  0  0  0  0  0
  1  2  2  3
  2  3  1  0
  3  4  1  0
  3  5  1  0
  5  6  1  0
  6  7  1  0
  7  8  1  0
  8  9  1  0
  9 10  1  0
  9 11  1  0
 11 12  1  0
 12 13  1  0
 13 14  1  0
 14 15  1  0
 14 16  1  0
 16 17  1  0
 12 18  1  0
 18 19  1  0
 19 20  1  0
 20 21  1  0
 21 22  1  0
 22 23  1  0
 23 24  1  0
 24 25  1  0
 25 26  1  0
 26 27  1  0
 27 28  1  0
 28 29  2  3
 28 30  1  0
 30 31  1  0
 31 32  1  0
 27 33  1  0
 33 34  1  0
 34 35  1  0
 35 36  1  0
 36 37  1  0
 37 38  1  0
 36 39  1  0
 39 40  1  0
 39 41  1  0
 35 42  1  0
 42 43  1  0
 43 44  1  0
 23 45  1  0
  8  6  1  0
 45 11  1  0
 44  6  1  0
 16 13  1  0
 45 19  1  0
 23 20  1  0
 43 25  1  0
 44 27  1  0
 44 42  1  0
  1 46  1  0
  1 47  1  0
  2 48  1  0
  3 49  1  0
  4 50  1  0
  4 51  1  0
  4 52  1  0
  5 53  1  0
  5 54  1  0
  7 55  1  0
  7 56  1  0
  9 57  1  0
 11 58  1  0
 12 59  1  0
 13 60  1  0
 14 61  1  0
 15 62  1  0
 15 63  1  0
 15 64  1  0
 16 65  1  0
 17 66  1  0
 17 67  1  0
 17 68  1  0
 18 69  1  0
 18 70  1  0
 19 71  1  0
 20 72  1  0
 21 73  1  0
 21 74  1  0
 22 75  1  0
 22 76  1  0
 25 77  1  0
 26 78  1  0
 26 79  1  0
 29 80  1  0
 29 81  1  0
 30 82  1  0
 30 83  1  0
 31 84  1  0
 31 85  1  0
 32 86  1  0
 32 87  1  0
 33 88  1  0
 33 89  1  0
 34 90  1  0
 34 91  1  0
 35 92  1  0
 36 93  1  0
 37 94  1  0
 37 95  1  0
 38 96  1  0
 38 97  1  0
 38 98  1  0
 39 99  1  0
 40100  1  0
 40101  1  0
 40102  1  0
 42103  1  0
 43104  1  0
 45105  1  0
M  END
$$$$
