
     RDKit          2D

 66 68  0  0  0  0  0  0  0  0999 V2000
   -0.4679    3.0774    0.0000 C   0  0  0  0  0  0  0  0  0  0  0  0
    0.6811    2.1132    0.0000 C   0  0  0  0  0  0  0  0  0  0  0  0
    1.8302    1.1491    0.0000 C   0  0  0  0  0  0  0  0  0  0  0  0
    2.9793    0.1849    0.0000 C   0  0  0  0  0  0  0  0  0  0  0  0
    0.8660    0.0000    0.0000 C   0  0  0  0  0  0  0  0  0  0  0  0
   -0.4330    0.7500    0.0000 N   0  0  0  0  0  0  0  0  0  0  0  0
   -1.1830    2.0490    0.0000 Cl  0  0  0  0  0  0  0  0  0  0  0  0
   -0.4330   -0.7500    0.0000 C   0  0  0  0  0  0  0  0  0  0  0  0
   -0.4330   -2.2500    0.0000 C   0  0  0  0  0  0  0  0  0  0  0  0
    1.0442   -2.5105    0.0000 C   0  0  0  0  0  0  0  0  0  0  0  0
    2.5214   -2.7709    0.0000 C   0  0  0  0  0  0  0  0  0  0  0  0
    3.9986   -3.0314    0.0000 C   0  0  0  0  0  0  0  0  0  0  0  0
    5.4758   -3.2919    0.0000 C   0  0  0  0  0  0  0  0  0  0  0  0
    6.9530   -3.5524    0.0000 C   0  0  0  0  0  0  0  0  0  0  0  0
    7.2135   -2.0751    0.0000 N   0  0  0  0  0  0  0  0  0  0  0  0
    8.6231   -1.5621    0.0000 C   0  0  0  0  0  0  0  0  0  0  0  0
   10.0326   -1.0491    0.0000 C   0  0  0  0  0  0  0  0  0  0  0  0
   11.4421   -0.5361    0.0000 O   0  0  0  0  0  0  0  0  0  0  0  0
    8.4303   -3.8128    0.0000 C   0  0  0  0  0  0  0  0  0  0  0  0
    8.6907   -2.3356    0.0000 O   0  0  0  0  0  0  0  0  0  0  0  0
    9.9075   -4.0733    0.0000 C   0  0  0  0  0  0  0  0  0  0  0  0
   10.8717   -2.9242    0.0000 N   0  0  0  0  0  0  0  0  0  0  0  0
   10.4205   -5.4828    0.0000 C   0  0  0  0  0  0  0  0  0  0  0  0
   10.9335   -6.8924    0.0000 C   0  0  0  0  0  0  0  0  0  0  0  0
    9.6345   -7.6424    0.0000 C   0  0  0  0  0  0  0  0  0  0  0  0
   11.8977   -8.0415    0.0000 C   0  0  0  0  0  0  0  0  0  0  0  0
   12.4107   -6.6319    0.0000 C   0  0  0  0  0  0  0  0  0  0  0  0
   -1.7321   -1.5000    0.0000 N   0  0  0  0  0  0  0  0  0  0  0  0
   -3.2321   -1.5000    0.0000 C   0  0  0  0  0  0  0  0  0  0  0  0
   -1.6170    4.0416    0.0000 H   0  0  0  0  0  0  0  0  0  0  0  0
    2.7944    2.2981    0.0000 H   0  0  0  0  0  0  0  0  0  0  0  0
    4.2373   -0.6320    0.0000 H   0  0  0  0  0  0  0  0  0  0  0  0
    3.9435    1.3340    0.0000 H   0  0  0  0  0  0  0  0  0  0  0  0
    2.1623   -1.0731    0.0000 H   0  0  0  0  0  0  0  0  0  0  0  0
    1.8302   -1.1491    0.0000 H   0  0  0  0  0  0  0  0  0  0  0  0
   -0.9460   -3.6595    0.0000 H   0  0  0  0  0  0  0  0  0  0  0  0
    0.7837   -3.9877    0.0000 H   0  0  0  0  0  0  0  0  0  0  0  0
    1.3047   -1.0333    0.0000 H   0  0  0  0  0  0  0  0  0  0  0  0
    2.2609   -4.2482    0.0000 H   0  0  0  0  0  0  0  0  0  0  0  0
    2.9600   -1.3365    0.0000 H   0  0  0  0  0  0  0  0  0  0  0  0
    3.7381   -4.5086    0.0000 H   0  0  0  0  0  0  0  0  0  0  0  0
    4.4372   -1.5970    0.0000 H   0  0  0  0  0  0  0  0  0  0  0  0
    5.2154   -4.7691    0.0000 H   0  0  0  0  0  0  0  0  0  0  0  0
    5.5543   -1.7939    0.0000 H   0  0  0  0  0  0  0  0  0  0  0  0
    6.6926   -5.0296    0.0000 H   0  0  0  0  0  0  0  0  0  0  0  0
    6.1905   -0.9781    0.0000 H   0  0  0  0  0  0  0  0  0  0  0  0
    9.4619   -2.8056    0.0000 H   0  0  0  0  0  0  0  0  0  0  0  0
    8.1100   -0.1526    0.0000 H   0  0  0  0  0  0  0  0  0  0  0  0
    9.5196    0.3604    0.0000 H   0  0  0  0  0  0  0  0  0  0  0  0
   11.0168   -2.1811    0.0000 H   0  0  0  0  0  0  0  0  0  0  0  0
   11.7026    0.9412    0.0000 H   0  0  0  0  0  0  0  0  0  0  0  0
    8.1698   -5.2900    0.0000 H   0  0  0  0  0  0  0  0  0  0  0  0
   10.1905   -2.3619    0.0000 H   0  0  0  0  0  0  0  0  0  0  0  0
   12.3489   -3.1847    0.0000 H   0  0  0  0  0  0  0  0  0  0  0  0
   11.7570   -4.8018    0.0000 H   0  0  0  0  0  0  0  0  0  0  0  0
    8.9589   -5.8202    0.0000 H   0  0  0  0  0  0  0  0  0  0  0  0
    8.3355   -8.3924    0.0000 H   0  0  0  0  0  0  0  0  0  0  0  0
   10.2206   -9.0232    0.0000 H   0  0  0  0  0  0  0  0  0  0  0  0
    8.7317   -6.4445    0.0000 H   0  0  0  0  0  0  0  0  0  0  0  0
   11.0808   -9.2995    0.0000 H   0  0  0  0  0  0  0  0  0  0  0  0
   13.1967   -8.7915    0.0000 H   0  0  0  0  0  0  0  0  0  0  0  0
   13.8880   -6.8924    0.0000 H   0  0  0  0  0  0  0  0  0  0  0  0
   12.5936   -5.1431    0.0000 H   0  0  0  0  0  0  0  0  0  0  0  0
   -4.7321   -1.5000    0.0000 H   0  0  0  0  0  0  0  0  0  0  0  0
   -3.2321    0.0000    0.0000 H   0  0  0  0  0  0  0  0  0  0  0  0
   -3.2321   -3.0000    0.0000 H   0  0  0  0  0  0  0  0  0  0  0  0
  1  2  3  0
  2  3  1  0
  3  4  1  0
  3  5  1  0
  5  6  1  0
  6  7  1  0
  8  6  1  6
  8  9  1  0
  9 10  1  0
 10 11  1  0
 11 12  1  0
 12 13  1  0
 13 14  1  0
 14 15  1  0
 15 16  1  0
 16 17  1  0
 17 18  1  0
 14 19  1  0
 19 20  1  0
 19 21  1  0
 21 22  2  3
 21 23  1  0
 23 24  1  0
 24 25  1  0
 24 26  1  0
 26 27  1  0
  9 28  1  0
 28 29  1  0
  8  5  1  0
 27 24  1  0
 28  8  1  0
  1 30  1  0
  3 31  1  6
  4 32  1  0
  4 33  1  0
  4 34  1  0
  5 35  1  6
  9 36  1  1
 10 37  1  0
 10 38  1  0
 11 39  1  0
 11 40  1  0
 12 41  1  0
 12 42  1  0
 13 43  1  0
 13 44  1  0
 14 45  1  6
 15 46  1  0
 16 47  1  0
 16 48  1  0
 17 49  1  0
 17 50  1  0
 18 51  1  0
 19 52  1  6
 20 53  1  0
 22 54  1  0
 23 55  1  0
 23 56  1  0
 25 57  1  0
 25 58  1  0
 25 59  1  0
 26 60  1  0
 26 61  1  0
 27 62  1  0
 27 63  1  0
 29 64  1  0
 29 65  1  0
 29 66  1  0
M  END
$$$$
