
     RDKit          2D

 40 41  0  0  0  0  0  0  0  0999 V2000
   -2.8133    5.6844    0.0000 C   0  0  0  0  0  0  0  0  0  0  0  0
   -3.9623    6.6486    0.0000 C   0  0  0  0  0  0  0  0  0  0  0  0
   -4.9265    5.4996    0.0000 N   0  0  0  0  0  0  0  0  0  0  0  0
   -4.4135    4.0900    0.0000 C   0  0  0  0  0  0  0  0  0  0  0  0
   -3.9005    2.6805    0.0000 N   0  0  0  0  0  0  0  0  0  0  0  0
   -4.8646    1.5314    0.0000 N   0  0  0  0  0  0  0  0  0  0  0  0
   -2.4233    2.4200    0.0000 C   0  0  0  0  0  0  0  0  0  0  0  0
   -1.9102    1.0105    0.0000 N   0  0  0  0  0  0  0  0  0  0  0  0
   -0.4330    0.7500    0.0000 C   0  0  0  0  0  0  0  0  0  0  0  0
    0.8660   -0.0000    0.0000 C   0  0  0  0  0  0  0  0  0  0  0  0
   -0.4330   -0.7500    0.0000 C   0  0  0  0  0  0  0  0  0  0  0  0
   -5.1114    7.6128    0.0000 C   0  0  0  0  0  0  0  0  0  0  0  0
   -5.8614    8.9118    0.0000 C   0  0  0  0  0  0  0  0  0  0  0  0
   -4.3614    8.9118    0.0000 C   0  0  0  0  0  0  0  0  0  0  0  0
   -4.1009   10.3891    0.0000 C   0  0  0  0  0  0  0  0  0  0  0  0
   -2.9519    8.3988    0.0000 C   0  0  0  0  0  0  0  0  0  0  0  0
   -1.6642    4.7203    0.0000 H   0  0  0  0  0  0  0  0  0  0  0  0
   -1.8491    6.8335    0.0000 H   0  0  0  0  0  0  0  0  0  0  0  0
   -3.0727    4.9307    0.0000 H   0  0  0  0  0  0  0  0  0  0  0  0
   -2.7488    7.5302    0.0000 H   0  0  0  0  0  0  0  0  0  0  0  0
   -6.4245    5.5780    0.0000 H   0  0  0  0  0  0  0  0  0  0  0  0
   -3.6368    4.2693    0.0000 H   0  0  0  0  0  0  0  0  0  0  0  0
   -5.8230    3.5770    0.0000 H   0  0  0  0  0  0  0  0  0  0  0  0
   -6.3419    1.7919    0.0000 H   0  0  0  0  0  0  0  0  0  0  0  0
   -4.3516    0.1219    0.0000 H   0  0  0  0  0  0  0  0  0  0  0  0
   -1.4591    3.5691    0.0000 H   0  0  0  0  0  0  0  0  0  0  0  0
    0.0800    2.1595    0.0000 H   0  0  0  0  0  0  0  0  0  0  0  0
    1.8302    1.1491    0.0000 H   0  0  0  0  0  0  0  0  0  0  0  0
    1.8302   -1.1491    0.0000 H   0  0  0  0  0  0  0  0  0  0  0  0
    0.0800   -2.1595    0.0000 H   0  0  0  0  0  0  0  0  0  0  0  0
   -1.9102   -1.0105    0.0000 H   0  0  0  0  0  0  0  0  0  0  0  0
   -6.3694    6.7959    0.0000 H   0  0  0  0  0  0  0  0  0  0  0  0
   -7.2710    8.3988    0.0000 H   0  0  0  0  0  0  0  0  0  0  0  0
   -6.3000   10.3463    0.0000 H   0  0  0  0  0  0  0  0  0  0  0  0
   -3.8405   11.8663    0.0000 H   0  0  0  0  0  0  0  0  0  0  0  0
   -2.6030   10.3106    0.0000 H   0  0  0  0  0  0  0  0  0  0  0  0
   -5.5354   10.8277    0.0000 H   0  0  0  0  0  0  0  0  0  0  0  0
   -1.5423    7.8858    0.0000 H   0  0  0  0  0  0  0  0  0  0  0  0
   -2.2709    9.7353    0.0000 H   0  0  0  0  0  0  0  0  0  0  0  0
   -3.1086    6.9070    0.0000 H   0  0  0  0  0  0  0  0  0  0  0  0
  1  2  1  0
  2  3  1  0
  3  4  1  0
  4  5  1  0
  5  6  1  0
  5  7  1  0
  7  8  2  3
  8  9  1  0
  9 10  1  0
 10 11  1  0
  2 12  1  0
 12 13  1  0
 13 14  1  0
 14 15  1  0
 14 16  1  0
 11  9  1  0
 14 12  1  0
  1 17  1  0
  1 18  1  0
  1 19  1  0
  2 20  1  6
  3 21  1  0
  4 22  1  0
  4 23  1  0
  6 24  1  0
  6 25  1  0
  7 26  1  0
  9 27  1  0
 10 28  1  0
 10 29  1  0
 11 30  1  0
 11 31  1  0
 12 32  1  6
 13 33  1  0
 13 34  1  0
 15 35  1  0
 15 36  1  0
 15 37  1  0
 16 38  1  0
 16 39  1  0
 16 40  1  0
M  END
$$$$
