
     RDKit          2D

103113  0  0  0  0  0  0  0  0999 V2000
    0.0132   -0.9101    0.0000 C   0  0  0  0  0  0  0  0  0  0  0  0
   -0.8472    0.3187    0.0000 C   0  0  0  0  0  0  0  0  0  0  0  0
   -1.7076    1.5474    0.0000 C   0  0  0  0  0  0  0  0  0  0  0  0
   -0.4788    2.4078    0.0000 C   0  0  0  0  0  0  0  0  0  0  0  0
   -2.5679    2.7761    0.0000 C   0  0  0  0  0  0  0  0  0  0  0  0
   -3.7966    1.9158    0.0000 C   0  0  0  0  0  0  0  0  0  0  0  0
   -4.3097    3.3253    0.0000 C   0  0  0  0  0  0  0  0  0  0  0  0
   -5.2909    1.7850    0.0000 C   0  0  0  0  0  0  0  0  0  0  0  0
   -5.9249    0.4256    0.0000 C   0  0  0  0  0  0  0  0  0  0  0  0
   -5.0645   -0.8032    0.0000 C   0  0  0  0  0  0  0  0  0  0  0  0
   -3.5702   -0.6724    0.0000 C   0  0  0  0  0  0  0  0  0  0  0  0
   -2.1213   -1.0607    0.0000 N   0  0  0  0  0  0  0  0  0  0  0  0
   -1.0607    0.0000    0.0000 C   0  0  0  0  0  0  0  0  0  0  0  0
   -0.0000   -1.0607    0.0000 C   0  0  0  0  0  0  0  0  0  0  0  0
    1.0607    0.0000    0.0000 C   0  0  0  0  0  0  0  0  0  0  0  0
    0.0000    1.0607    0.0000 C   0  0  0  0  0  0  0  0  0  0  0  0
    1.5000    1.0607    0.0000 C   0  0  0  0  0  0  0  0  0  0  0  0
    5.2172   -0.5502    0.0000 C   0  0  0  0  0  0  0  0  0  0  0  0
    6.3663   -1.5144    0.0000 C   0  0  0  0  0  0  0  0  0  0  0  0
    6.6268   -2.9916    0.0000 C   0  0  0  0  0  0  0  0  0  0  0  0
    5.8768   -4.2907    0.0000 C   0  0  0  0  0  0  0  0  0  0  0  0
    4.4672   -4.8037    0.0000 C   0  0  0  0  0  0  0  0  0  0  0  0
    5.3630   -6.0069    0.0000 C   0  0  0  0  0  0  0  0  0  0  0  0
    3.0577   -4.2907    0.0000 C   0  0  0  0  0  0  0  0  0  0  0  0
    2.5037   -2.6521    0.0000 C   0  0  0  0  0  0  0  0  0  0  0  0
    3.8740   -2.0420    0.0000 C   0  0  0  0  0  0  0  0  0  0  0  0
    3.7172   -0.5502    0.0000 C   0  0  0  0  0  0  0  0  0  0  0  0
    2.2500   -0.2384    0.0000 C   0  0  0  0  0  0  0  0  0  0  0  0
    1.5000   -1.5374    0.0000 C   0  0  0  0  0  0  0  0  0  0  0  0
   -1.7331   -2.5095    0.0000 C   0  0  0  0  0  0  0  0  0  0  0  0
   -1.8638   -4.0038    0.0000 C   0  0  0  0  0  0  0  0  0  0  0  0
   -2.3024   -5.4383    0.0000 C   0  0  0  0  0  0  0  0  0  0  0  0
   -0.8299   -5.7245    0.0000 C   0  0  0  0  0  0  0  0  0  0  0  0
   -0.2924   -4.3241    0.0000 C   0  0  0  0  0  0  0  0  0  0  0  0
   -0.0577   -2.8426    0.0000 C   0  0  0  0  0  0  0  0  0  0  0  0
    1.4238   -2.6080    0.0000 N   0  0  0  0  0  0  0  0  0  0  0  0
    2.1048   -3.9445    0.0000 O   0  0  0  0  0  0  0  0  0  0  0  0
    1.0441   -5.0051    0.0000 C   0  0  0  0  0  0  0  0  0  0  0  0
    0.4558   -6.4971    0.0000 C   0  0  0  0  0  0  0  0  0  0  0  0
   -0.8561   -7.2243    0.0000 N   0  0  0  0  0  0  0  0  0  0  0  0
   -3.8022   -5.4645    0.0000 N   0  0  0  0  0  0  0  0  0  0  0  0
   -4.2905   -4.0462    0.0000 C   0  0  0  0  0  0  0  0  0  0  0  0
   -3.0926   -3.1435    0.0000 N   0  0  0  0  0  0  0  0  0  0  0  0
   -2.9363    0.6870    0.0000 C   0  0  0  0  0  0  0  0  0  0  0  0
    1.0169   -2.0248    0.0000 H   0  0  0  0  0  0  0  0  0  0  0  0
   -1.2156   -1.7704    0.0000 H   0  0  0  0  0  0  0  0  0  0  0  0
    0.9972    0.2221    0.0000 H   0  0  0  0  0  0  0  0  0  0  0  0
   -1.6859   -0.9250    0.0000 H   0  0  0  0  0  0  0  0  0  0  0  0
    0.2675    1.3224    0.0000 H   0  0  0  0  0  0  0  0  0  0  0  0
    0.7499    3.2681    0.0000 H   0  0  0  0  0  0  0  0  0  0  0  0
   -1.1830    3.7322    0.0000 H   0  0  0  0  0  0  0  0  0  0  0  0
    0.7648    1.5691    0.0000 H   0  0  0  0  0  0  0  0  0  0  0  0
   -1.4532    3.7798    0.0000 H   0  0  0  0  0  0  0  0  0  0  0  0
   -3.2721    4.1006    0.0000 H   0  0  0  0  0  0  0  0  0  0  0  0
   -4.8227    4.7348    0.0000 H   0  0  0  0  0  0  0  0  0  0  0  0
   -5.7712    2.9879    0.0000 H   0  0  0  0  0  0  0  0  0  0  0  0
   -2.9732    4.0063    0.0000 H   0  0  0  0  0  0  0  0  0  0  0  0
   -6.7398    2.1733    0.0000 H   0  0  0  0  0  0  0  0  0  0  0  0
   -5.3433    3.2841    0.0000 H   0  0  0  0  0  0  0  0  0  0  0  0
   -6.9855   -0.6351    0.0000 H   0  0  0  0  0  0  0  0  0  0  0  0
   -7.1536    1.2859    0.0000 H   0  0  0  0  0  0  0  0  0  0  0  0
   -4.6763   -2.2521    0.0000 H   0  0  0  0  0  0  0  0  0  0  0  0
   -6.4240   -1.4371    0.0000 H   0  0  0  0  0  0  0  0  0  0  0  0
   -3.7009   -2.1667    0.0000 H   0  0  0  0  0  0  0  0  0  0  0  0
   -1.8331    1.2858    0.0000 H   0  0  0  0  0  0  0  0  0  0  0  0
    0.5377   -2.4610    0.0000 H   0  0  0  0  0  0  0  0  0  0  0  0
    2.3465    0.7725    0.0000 H   0  0  0  0  0  0  0  0  0  0  0  0
    2.4310   -0.6100    0.0000 H   0  0  0  0  0  0  0  0  0  0  0  0
    0.3630    2.5161    0.0000 H   0  0  0  0  0  0  0  0  0  0  0  0
    2.2500    2.3597    0.0000 H   0  0  0  0  0  0  0  0  0  0  0  0
    5.7303    0.8593    0.0000 H   0  0  0  0  0  0  0  0  0  0  0  0
    6.9604   -0.1371    0.0000 H   0  0  0  0  0  0  0  0  0  0  0  0
    7.8663   -1.5057    0.0000 H   0  0  0  0  0  0  0  0  0  0  0  0
    8.0393   -2.4869    0.0000 H   0  0  0  0  0  0  0  0  0  0  0  0
    7.7814   -3.9491    0.0000 H   0  0  0  0  0  0  0  0  0  0  0  0
    7.3363   -4.6366    0.0000 H   0  0  0  0  0  0  0  0  0  0  0  0
    6.4949   -5.6574    0.0000 H   0  0  0  0  0  0  0  0  0  0  0  0
    3.7248   -6.1071    0.0000 H   0  0  0  0  0  0  0  0  0  0  0  0
    6.2587   -7.2101    0.0000 H   0  0  0  0  0  0  0  0  0  0  0  0
    4.1598   -6.9026    0.0000 H   0  0  0  0  0  0  0  0  0  0  0  0
    6.7471   -5.4289    0.0000 H   0  0  0  0  0  0  0  0  0  0  0  0
    2.9705   -5.7881    0.0000 H   0  0  0  0  0  0  0  0  0  0  0  0
    1.5578   -4.2731    0.0000 H   0  0  0  0  0  0  0  0  0  0  0  0
    2.3730   -4.1464    0.0000 H   0  0  0  0  0  0  0  0  0  0  0  0
    4.3375   -3.4686    0.0000 H   0  0  0  0  0  0  0  0  0  0  0  0
    5.3412   -1.7302    0.0000 H   0  0  0  0  0  0  0  0  0  0  0  0
    4.8319    0.4535    0.0000 H   0  0  0  0  0  0  0  0  0  0  0  0
    3.1317    0.9751    0.0000 H   0  0  0  0  0  0  0  0  0  0  0  0
    1.4216   -3.0354    0.0000 H   0  0  0  0  0  0  0  0  0  0  0  0
   -0.2659   -2.1976    0.0000 H   0  0  0  0  0  0  0  0  0  0  0  0
   -0.3659   -3.9253    0.0000 H   0  0  0  0  0  0  0  0  0  0  0  0
   -2.4331   -6.9326    0.0000 H   0  0  0  0  0  0  0  0  0  0  0  0
   -1.6043   -3.5969    0.0000 H   0  0  0  0  0  0  0  0  0  0  0  0
   -1.4922   -2.4040    0.0000 H   0  0  0  0  0  0  0  0  0  0  0  0
    0.5763   -1.4832    0.0000 H   0  0  0  0  0  0  0  0  0  0  0  0
    2.5386   -1.6044    0.0000 H   0  0  0  0  0  0  0  0  0  0  0  0
    2.0861   -6.0842    0.0000 H   0  0  0  0  0  0  0  0  0  0  0  0
    0.5558   -6.4234    0.0000 H   0  0  0  0  0  0  0  0  0  0  0  0
    1.7803   -5.7930    0.0000 H   0  0  0  0  0  0  0  0  0  0  0  0
    1.3998   -7.6628    0.0000 H   0  0  0  0  0  0  0  0  0  0  0  0
   -1.6287   -8.5100    0.0000 H   0  0  0  0  0  0  0  0  0  0  0  0
   -5.7250   -3.6076    0.0000 H   0  0  0  0  0  0  0  0  0  0  0  0
   -1.5180    0.1988    0.0000 H   0  0  0  0  0  0  0  0  0  0  0  0
  1  2  1  0
  3  2  1  6
  3  4  1  0
  3  5  1  0
  5  6  1  0
  6  7  1  6
  6  8  1  0
  8  9  1  0
  9 10  1  0
 10 11  1  0
 11 12  1  0
 12 13  1  0
 13 14  1  0
 14 15  1  0
 15 16  1  0
 16 17  1  0
 17 18  1  0
 18 19  1  0
 19 20  1  0
 20 21  1  0
 21 22  1  0
 22 23  1  0
 22 24  1  0
 24 25  1  0
 25 26  1  0
 26 27  1  0
 27 28  1  0
 28 29  1  0
 12 30  1  0
 30 31  1  0
 31 32  1  0
 32 33  1  0
 33 34  1  0
 34 35  1  0
 35 36  1  0
 36 37  1  0
 37 38  1  0
 33 39  1  0
 39 40  1  0
 32 41  1  0
 41 42  2  0
 42 43  1  0
 11 44  1  0
 44  3  1  0
 44  6  1  0
 16 13  1  0
 28 17  1  0
 43 30  1  0
 29 14  1  0
 43 31  1  0
 27 18  1  0
 33 40  1  6
 29 25  1  0
 38 34  1  0
  1 45  1  0
  1 46  1  0
  1 47  1  0
  2 48  1  0
  2 49  1  0
  4 50  1  0
  4 51  1  0
  4 52  1  0
  5 53  1  0
  5 54  1  0
  7 55  1  0
  7 56  1  0
  7 57  1  0
  8 58  1  0
  8 59  1  0
  9 60  1  0
  9 61  1  0
 10 62  1  0
 10 63  1  0
 11 64  1  1
 13 65  1  6
 14 66  1  1
 15 67  1  0
 15 68  1  0
 16 69  1  6
 17 70  1  1
 18 71  1  1
 19 72  1  0
 19 73  1  0
 20 74  1  0
 20 75  1  0
 21 76  1  0
 21 77  1  0
 22 78  1  1
 23 79  1  0
 23 80  1  0
 23 81  1  0
 24 82  1  0
 24 83  1  0
 25 84  1  1
 26 85  1  0
 26 86  1  0
 27 87  1  6
 28 88  1  1
 29 89  1  1
 30 90  1  6
 31 91  1  1
 32 92  1  1
 34 93  1  1
 35 94  1  0
 35 95  1  0
 36 96  1  0
 38 97  1  0
 38 98  1  0
 39 99  1  0
 39100  1  0
 40101  1  0
 42102  1  0
 44103  1  6
M  END
$$$$
