
     RDKit          2D

 60 67  0  0  0  0  0  0  0  0999 V2000
    1.0310    7.2086    0.0000 C   0  0  0  0  0  0  0  0  0  0  0  0
    1.0310    5.7086    0.0000 C   0  0  0  0  0  0  0  0  0  0  0  0
    1.0310    4.2086    0.0000 C   0  0  0  0  0  0  0  0  0  0  0  0
   -0.4462    3.9481    0.0000 C   0  0  0  0  0  0  0  0  0  0  0  0
    0.5179    2.7990    0.0000 C   0  0  0  0  0  0  0  0  0  0  0  0
    1.8170    2.0490    0.0000 C   0  0  0  0  0  0  0  0  0  0  0  0
    3.1160    1.2990    0.0000 C   0  0  0  0  0  0  0  0  0  0  0  0
    2.3660    0.0000    0.0000 O   0  0  0  0  0  0  0  0  0  0  0  0
    0.8660    0.0000    0.0000 C   0  0  0  0  0  0  0  0  0  0  0  0
    0.4025   -1.4266    0.0000 C   0  0  0  0  0  0  0  0  0  0  0  0
   -1.0975   -1.4266    0.0000 C   0  0  0  0  0  0  0  0  0  0  0  0
   -1.9796   -2.6398    0.0000 C   0  0  0  0  0  0  0  0  0  0  0  0
   -0.9380   -3.7192    0.0000 C   0  0  0  0  0  0  0  0  0  0  0  0
   -2.1819   -4.5575    0.0000 C   0  0  0  0  0  0  0  0  0  0  0  0
   -2.0778   -6.0539    0.0000 C   0  0  0  0  0  0  0  0  0  0  0  0
   -0.7298   -6.7119    0.0000 C   0  0  0  0  0  0  0  0  0  0  0  0
    0.5141   -5.8736    0.0000 O   0  0  0  0  0  0  0  0  0  0  0  0
    0.4100   -4.3772    0.0000 C   0  0  0  0  0  0  0  0  0  0  0  0
   -2.5892   -1.2693    0.0000 C   0  0  0  0  0  0  0  0  0  0  0  0
   -1.7321    0.0000    0.0000 C   0  0  0  0  0  0  0  0  0  0  0  0
   -0.4330    0.7500    0.0000 C   0  0  0  0  0  0  0  0  0  0  0  0
   -0.4330   -0.7500    0.0000 C   0  0  0  0  0  0  0  0  0  0  0  0
    4.4151    0.5490    0.0000 C   0  0  0  0  0  0  0  0  0  0  0  0
    5.1651    1.8481    0.0000 C   0  0  0  0  0  0  0  0  0  0  0  0
    6.4641    1.0981    0.0000 N   0  0  0  0  0  0  0  0  0  0  0  0
    5.7141   -0.2010    0.0000 C   0  0  0  0  0  0  0  0  0  0  0  0
    4.9641   -1.5000    0.0000 O   0  0  0  0  0  0  0  0  0  0  0  0
    1.0310    8.7086    0.0000 H   0  0  0  0  0  0  0  0  0  0  0  0
    2.5310    7.2086    0.0000 H   0  0  0  0  0  0  0  0  0  0  0  0
   -0.4690    7.2086    0.0000 H   0  0  0  0  0  0  0  0  0  0  0  0
   -0.3090    5.8731    0.0000 H   0  0  0  0  0  0  0  0  0  0  0  0
    2.5310    5.7086    0.0000 H   0  0  0  0  0  0  0  0  0  0  0  0
    2.3791    4.1380    0.0000 H   0  0  0  0  0  0  0  0  0  0  0  0
   -1.7453    3.1981    0.0000 H   0  0  0  0  0  0  0  0  0  0  0  0
   -1.0592    5.1509    0.0000 H   0  0  0  0  0  0  0  0  0  0  0  0
   -0.5791    1.7761    0.0000 H   0  0  0  0  0  0  0  0  0  0  0  0
    0.7749    0.9701    0.0000 H   0  0  0  0  0  0  0  0  0  0  0  0
    2.6295    3.1272    0.0000 H   0  0  0  0  0  0  0  0  0  0  0  0
    3.7021    2.6798    0.0000 H   0  0  0  0  0  0  0  0  0  0  0  0
    1.8697   -1.7385    0.0000 H   0  0  0  0  0  0  0  0  0  0  0  0
    0.5395   -2.4011    0.0000 H   0  0  0  0  0  0  0  0  0  0  0  0
   -2.6900   -3.0014    0.0000 H   0  0  0  0  0  0  0  0  0  0  0  0
   -0.1838   -3.0869    0.0000 H   0  0  0  0  0  0  0  0  0  0  0  0
   -3.6374   -4.9199    0.0000 H   0  0  0  0  0  0  0  0  0  0  0  0
   -2.5922   -3.8741    0.0000 H   0  0  0  0  0  0  0  0  0  0  0  0
   -2.4917   -7.4957    0.0000 H   0  0  0  0  0  0  0  0  0  0  0  0
   -3.5695   -5.8966    0.0000 H   0  0  0  0  0  0  0  0  0  0  0  0
    0.3118   -7.7913    0.0000 H   0  0  0  0  0  0  0  0  0  0  0  0
   -1.6119   -7.9252    0.0000 H   0  0  0  0  0  0  0  0  0  0  0  0
    0.9966   -2.9967    0.0000 H   0  0  0  0  0  0  0  0  0  0  0  0
    1.9017   -4.5345    0.0000 H   0  0  0  0  0  0  0  0  0  0  0  0
   -4.1170   -1.1616    0.0000 H   0  0  0  0  0  0  0  0  0  0  0  0
   -0.6159    2.2388    0.0000 H   0  0  0  0  0  0  0  0  0  0  0  0
   -0.2502   -2.2388    0.0000 H   0  0  0  0  0  0  0  0  0  0  0  0
    3.6651   -0.7500    0.0000 H   0  0  0  0  0  0  0  0  0  0  0  0
    5.9151    3.1471    0.0000 H   0  0  0  0  0  0  0  0  0  0  0  0
    3.9671    2.7508    0.0000 H   0  0  0  0  0  0  0  0  0  0  0  0
    7.9130    1.4863    0.0000 H   0  0  0  0  0  0  0  0  0  0  0  0
    7.0131   -0.9510    0.0000 H   0  0  0  0  0  0  0  0  0  0  0  0
    5.7141   -2.7990    0.0000 H   0  0  0  0  0  0  0  0  0  0  0  0
  1  2  1  0
  2  3  1  0
  3  4  1  0
  4  5  1  0
  5  6  1  0
  6  7  1  0
  7  8  1  0
  8  9  1  0
  9 10  1  0
 10 11  1  0
 11 12  1  0
 12 13  1  0
 13 14  1  0
 14 15  1  0
 15 16  1  0
 16 17  1  0
 17 18  1  0
 12 19  1  0
 19 20  1  0
 20 21  1  0
 21 22  1  0
  7 23  1  0
 23 24  1  0
 24 25  1  0
 25 26  1  0
 26 27  1  0
  5  3  1  0
 21  9  1  0
 26 23  1  0
 22  9  1  0
 19 11  1  0
 22 20  1  0
 20 11  1  0
 18 13  1  0
  1 28  1  0
  1 29  1  0
  1 30  1  0
  2 31  1  0
  2 32  1  0
  3 33  1  0
  4 34  1  0
  4 35  1  0
  5 36  1  0
  6 37  1  0
  6 38  1  0
  7 39  1  0
 10 40  1  0
 10 41  1  0
 12 42  1  0
 13 43  1  0
 14 44  1  0
 14 45  1  0
 15 46  1  0
 15 47  1  0
 16 48  1  0
 16 49  1  0
 18 50  1  0
 18 51  1  0
 19 52  1  0
 21 53  1  0
 22 54  1  0
 23 55  1  0
 24 56  1  0
 24 57  1  0
 25 58  1  0
 26 59  1  0
 27 60  1  0
M  END
$$$$
