
     RDKit          2D

 66 69  0  0  0  0  0  0  0  0999 V2000
    2.7084   -5.7040    0.0000 C   0  0  0  0  0  0  0  0  0  0  0  0
    1.6790   -6.7950    0.0000 C   0  0  0  0  0  0  0  0  0  0  0  0
    0.6496   -7.8861    0.0000 C   0  0  0  0  0  0  0  0  0  0  0  0
    0.0000   -6.5340    0.0000 F   0  0  0  0  0  0  0  0  0  0  0  0
   -0.3797   -8.9771    0.0000 C   0  0  0  0  0  0  0  0  0  0  0  0
   -1.4091  -10.0682    0.0000 C   0  0  0  0  0  0  0  0  0  0  0  0
   -2.4384  -11.1593    0.0000 C   0  0  0  0  0  0  0  0  0  0  0  0
   -3.4678  -12.2503    0.0000 C   0  0  0  0  0  0  0  0  0  0  0  0
   -4.4972  -13.3414    0.0000 C   0  0  0  0  0  0  0  0  0  0  0  0
   -5.5265  -14.4324    0.0000 N   0  0  0  0  0  0  0  0  0  0  0  0
   -1.4708   -7.9478    0.0000 N   0  0  0  0  0  0  0  0  0  0  0  0
   -2.9078   -8.3780    0.0000 C   0  0  0  0  0  0  0  0  0  0  0  0
   -1.1249   -6.4882    0.0000 C   0  0  0  0  0  0  0  0  0  0  0  0
   -0.7789   -5.0286    0.0000 C   0  0  0  0  0  0  0  0  0  0  0  0
   -0.4330   -3.5691    0.0000 C   0  0  0  0  0  0  0  0  0  0  0  0
    0.8660   -4.3191    0.0000 C   0  0  0  0  0  0  0  0  0  0  0  0
    2.3432   -4.0586    0.0000 C   0  0  0  0  0  0  0  0  0  0  0  0
    3.4923   -5.0228    0.0000 C   0  0  0  0  0  0  0  0  0  0  0  0
    4.4565   -3.8737    0.0000 C   0  0  0  0  0  0  0  0  0  0  0  0
    3.3074   -2.9095    0.0000 N   0  0  0  0  0  0  0  0  0  0  0  0
    3.3074   -1.4095    0.0000 C   0  0  0  0  0  0  0  0  0  0  0  0
    2.3432   -0.2605    0.0000 C   0  0  0  0  0  0  0  0  0  0  0  0
    0.8660    0.0000    0.0000 C   0  0  0  0  0  0  0  0  0  0  0  0
   -0.4330    0.7500    0.0000 C   0  0  0  0  0  0  0  0  0  0  0  0
    2.0084    0.8405    0.0000 C   0  0  0  0  0  0  0  0  0  0  0  0
    3.3074    0.0905    0.0000 C   0  0  0  0  0  0  0  0  0  0  0  0
    4.6065    0.8405    0.0000 O   0  0  0  0  0  0  0  0  0  0  0  0
   -0.4330   -0.7500    0.0000 N   0  0  0  0  0  0  0  0  0  0  0  0
   -0.9460   -2.1595    0.0000 C   0  0  0  0  0  0  0  0  0  0  0  0
    3.3795   -5.2737    0.0000 H   0  0  0  0  0  0  0  0  0  0  0  0
    3.7994   -6.7333    0.0000 H   0  0  0  0  0  0  0  0  0  0  0  0
    1.6173   -4.6746    0.0000 H   0  0  0  0  0  0  0  0  0  0  0  0
    0.7216   -5.6403    0.0000 H   0  0  0  0  0  0  0  0  0  0  0  0
    2.7701   -7.8244    0.0000 H   0  0  0  0  0  0  0  0  0  0  0  0
    1.7407   -8.9154    0.0000 H   0  0  0  0  0  0  0  0  0  0  0  0
    0.7113  -10.0065    0.0000 H   0  0  0  0  0  0  0  0  0  0  0  0
   -2.7966   -9.4983    0.0000 H   0  0  0  0  0  0  0  0  0  0  0  0
   -0.3180  -11.0976    0.0000 H   0  0  0  0  0  0  0  0  0  0  0  0
   -3.4061  -14.3707    0.0000 H   0  0  0  0  0  0  0  0  0  0  0  0
   -5.5882  -12.3120    0.0000 H   0  0  0  0  0  0  0  0  0  0  0  0
   -6.9861  -14.0865    0.0000 H   0  0  0  0  0  0  0  0  0  0  0  0
   -5.0963  -15.8694    0.0000 H   0  0  0  0  0  0  0  0  0  0  0  0
   -4.3448   -8.8082    0.0000 H   0  0  0  0  0  0  0  0  0  0  0  0
   -2.6559   -9.8567    0.0000 H   0  0  0  0  0  0  0  0  0  0  0  0
   -3.3380   -6.9410    0.0000 H   0  0  0  0  0  0  0  0  0  0  0  0
   -2.5844   -6.1423    0.0000 H   0  0  0  0  0  0  0  0  0  0  0  0
    0.3660   -6.6536    0.0000 H   0  0  0  0  0  0  0  0  0  0  0  0
    0.6276   -5.5499    0.0000 H   0  0  0  0  0  0  0  0  0  0  0  0
   -2.2385   -4.6827    0.0000 H   0  0  0  0  0  0  0  0  0  0  0  0
   -1.9087   -3.8382    0.0000 H   0  0  0  0  0  0  0  0  0  0  0  0
    1.6976   -5.5675    0.0000 H   0  0  0  0  0  0  0  0  0  0  0  0
    0.2164   -5.6711    0.0000 H   0  0  0  0  0  0  0  0  0  0  0  0
    3.5089   -3.1146    0.0000 H   0  0  0  0  0  0  0  0  0  0  0  0
    4.6414   -5.9870    0.0000 H   0  0  0  0  0  0  0  0  0  0  0  0
    2.8348   -6.3710    0.0000 H   0  0  0  0  0  0  0  0  0  0  0  0
    5.4207   -2.7247    0.0000 H   0  0  0  0  0  0  0  0  0  0  0  0
    5.6056   -4.8379    0.0000 H   0  0  0  0  0  0  0  0  0  0  0  0
    4.7170   -0.8965    0.0000 H   0  0  0  0  0  0  0  0  0  0  0  0
    2.7147    1.1928    0.0000 H   0  0  0  0  0  0  0  0  0  0  0  0
    3.5359    0.6493    0.0000 H   0  0  0  0  0  0  0  0  0  0  0  0
    1.0227    1.4918    0.0000 H   0  0  0  0  0  0  0  0  0  0  0  0
   -1.1830    2.0490    0.0000 H   0  0  0  0  0  0  0  0  0  0  0  0
    2.9726    1.9895    0.0000 H   0  0  0  0  0  0  0  0  0  0  0  0
    1.1915    2.0985    0.0000 H   0  0  0  0  0  0  0  0  0  0  0  0
   -2.2494   -2.9019    0.0000 H   0  0  0  0  0  0  0  0  0  0  0  0
   -2.1492   -1.2638    0.0000 H   0  0  0  0  0  0  0  0  0  0  0  0
  1  2  1  0
  2  3  1  0
  3  4  1  0
  3  5  1  0
  5  6  1  0
  6  7  1  0
  7  8  3  0
  8  9  1  0
  9 10  1  0
  5 11  1  0
 11 12  1  0
 11 13  1  0
 13 14  1  0
 14 15  1  0
 15 16  1  0
 16 17  1  0
 17 18  1  0
 18 19  1  0
 19 20  1  0
 20 21  1  0
 21 22  1  0
 22 23  1  0
 23 24  1  0
 24 25  1  0
 25 26  1  0
 26 27  2  0
 24 28  1  0
 28 29  1  0
 29 15  1  0
 20 17  1  0
 26 21  1  0
 28 23  1  0
  1 30  1  0
  1 31  1  0
  1 32  1  0
  2 33  1  0
  2 34  1  0
  3 35  1  0
  5 36  1  0
  6 37  1  0
  6 38  1  0
  9 39  1  0
  9 40  1  0
 10 41  1  0
 10 42  1  0
 12 43  1  0
 12 44  1  0
 12 45  1  0
 13 46  1  0
 13 47  1  0
 14 48  1  0
 14 49  1  0
 15 50  1  0
 16 51  1  0
 16 52  1  0
 17 53  1  0
 18 54  1  0
 18 55  1  0
 19 56  1  0
 19 57  1  0
 21 58  1  0
 22 59  1  0
 22 60  1  0
 23 61  1  0
 24 62  1  0
 25 63  1  0
 25 64  1  0
 29 65  1  0
 29 66  1  0
M  END
$$$$
