
     RDKit          2D

 54 55  0  0  0  0  0  0  0  0999 V2000
    4.3399    1.8263    0.0000 C   0  0  0  0  0  0  0  0  0  0  0  0
    3.1499    0.9131    0.0000 C   0  0  0  0  0  0  0  0  0  0  0  0
    1.9598    0.0000    0.0000 C   0  0  0  0  0  0  0  0  0  0  0  0
    1.3858   -1.3858    0.0000 C   0  0  0  0  0  0  0  0  0  0  0  0
   -0.0000   -1.9598    0.0000 C   0  0  0  0  0  0  0  0  0  0  0  0
   -1.3858   -1.3858    0.0000 C   0  0  0  0  0  0  0  0  0  0  0  0
   -1.9598    0.0000    0.0000 C   0  0  0  0  0  0  0  0  0  0  0  0
   -3.1499   -0.9131    0.0000 C   0  0  0  0  0  0  0  0  0  0  0  0
   -3.8425    0.4174    0.0000 C   0  0  0  0  0  0  0  0  0  0  0  0
   -5.3411    0.4828    0.0000 C   0  0  0  0  0  0  0  0  0  0  0  0
   -6.1470   -0.7823    0.0000 C   0  0  0  0  0  0  0  0  0  0  0  0
   -7.3370   -1.6954    0.0000 C   0  0  0  0  0  0  0  0  0  0  0  0
   -8.5271   -2.6086    0.0000 C   0  0  0  0  0  0  0  0  0  0  0  0
   -8.2502   -0.5054    0.0000 C   0  0  0  0  0  0  0  0  0  0  0  0
   -5.4544   -2.1128    0.0000 N   0  0  0  0  0  0  0  0  0  0  0  0
   -3.9558   -2.1782    0.0000 C   0  0  0  0  0  0  0  0  0  0  0  0
   -1.3858    1.3858    0.0000 C   0  0  0  0  0  0  0  0  0  0  0  0
    0.0000    1.9598    0.0000 C   0  0  0  0  0  0  0  0  0  0  0  0
    1.3858    1.3858    0.0000 C   0  0  0  0  0  0  0  0  0  0  0  0
    1.7239    2.6928    0.0000 F   0  0  0  0  0  0  0  0  0  0  0  0
    5.5299    2.7394    0.0000 H   0  0  0  0  0  0  0  0  0  0  0  0
    5.2530    0.6363    0.0000 H   0  0  0  0  0  0  0  0  0  0  0  0
    3.4268    3.0163    0.0000 H   0  0  0  0  0  0  0  0  0  0  0  0
    2.4647    2.0764    0.0000 H   0  0  0  0  0  0  0  0  0  0  0  0
    4.0630   -0.2769    0.0000 H   0  0  0  0  0  0  0  0  0  0  0  0
    3.2523   -0.7613    0.0000 H   0  0  0  0  0  0  0  0  0  0  0  0
    2.8380   -1.7614    0.0000 H   0  0  0  0  0  0  0  0  0  0  0  0
    1.7614   -2.8380    0.0000 H   0  0  0  0  0  0  0  0  0  0  0  0
    0.7613   -3.2523    0.0000 H   0  0  0  0  0  0  0  0  0  0  0  0
   -0.7613   -3.2523    0.0000 H   0  0  0  0  0  0  0  0  0  0  0  0
   -1.7239   -2.6928    0.0000 H   0  0  0  0  0  0  0  0  0  0  0  0
   -2.1642   -1.8085    0.0000 H   0  0  0  0  0  0  0  0  0  0  0  0
   -3.1499    0.9131    0.0000 H   0  0  0  0  0  0  0  0  0  0  0  0
   -2.6322   -1.5193    0.0000 H   0  0  0  0  0  0  0  0  0  0  0  0
   -4.0383    1.9045    0.0000 H   0  0  0  0  0  0  0  0  0  0  0  0
   -2.5636    1.2012    0.0000 H   0  0  0  0  0  0  0  0  0  0  0  0
   -6.6466    1.2215    0.0000 H   0  0  0  0  0  0  0  0  0  0  0  0
   -5.0164    1.9472    0.0000 H   0  0  0  0  0  0  0  0  0  0  0  0
   -7.1212    0.3584    0.0000 H   0  0  0  0  0  0  0  0  0  0  0  0
   -6.5758   -2.9879    0.0000 H   0  0  0  0  0  0  0  0  0  0  0  0
   -9.7171   -3.5217    0.0000 H   0  0  0  0  0  0  0  0  0  0  0  0
   -9.5785   -1.5387    0.0000 H   0  0  0  0  0  0  0  0  0  0  0  0
   -7.6139   -3.7986    0.0000 H   0  0  0  0  0  0  0  0  0  0  0  0
   -9.1633    0.6846    0.0000 H   0  0  0  0  0  0  0  0  0  0  0  0
   -9.5427   -1.2667    0.0000 H   0  0  0  0  0  0  0  0  0  0  0  0
   -7.3165    0.6686    0.0000 H   0  0  0  0  0  0  0  0  0  0  0  0
   -6.1001   -3.4667    0.0000 H   0  0  0  0  0  0  0  0  0  0  0  0
   -2.5700   -2.7523    0.0000 H   0  0  0  0  0  0  0  0  0  0  0  0
   -4.2805   -3.6427    0.0000 H   0  0  0  0  0  0  0  0  0  0  0  0
   -2.7814    1.9356    0.0000 H   0  0  0  0  0  0  0  0  0  0  0  0
   -1.7614    2.8380    0.0000 H   0  0  0  0  0  0  0  0  0  0  0  0
   -0.7613    3.2523    0.0000 H   0  0  0  0  0  0  0  0  0  0  0  0
    0.7613    3.2523    0.0000 H   0  0  0  0  0  0  0  0  0  0  0  0
    2.7040    2.1017    0.0000 H   0  0  0  0  0  0  0  0  0  0  0  0
  1  2  1  0
  2  3  1  0
  3  4  1  0
  4  5  1  0
  5  6  1  0
  6  7  1  0
  7  8  1  0
  8  9  1  0
  9 10  1  0
 10 11  1  0
 11 12  1  0
 12 13  1  0
 12 14  1  0
 11 15  1  0
 15 16  1  0
  7 17  1  0
 17 18  1  0
 18 19  1  0
 19 20  1  0
 19  3  1  0
 16  8  1  0
  1 21  1  0
  1 22  1  0
  1 23  1  0
  2 24  1  0
  2 25  1  0
  3 26  1  0
  4 27  1  0
  4 28  1  0
  5 29  1  0
  5 30  1  0
  6 31  1  0
  6 32  1  0
  7 33  1  0
  8 34  1  0
  9 35  1  0
  9 36  1  0
 10 37  1  0
 10 38  1  0
 11 39  1  0
 12 40  1  0
 13 41  1  0
 13 42  1  0
 13 43  1  0
 14 44  1  0
 14 45  1  0
 14 46  1  0
 15 47  1  0
 16 48  1  0
 16 49  1  0
 17 50  1  0
 17 51  1  0
 18 52  1  0
 18 53  1  0
 19 54  1  0
M  END
$$$$
