
     RDKit          2D

 50 52  0  0  0  0  0  0  0  0999 V2000
   -5.7756    0.7860    0.0000 C   0  0  0  0  0  0  0  0  0  0  0  0
   -4.3490    1.2495    0.0000 C   0  0  0  0  0  0  0  0  0  0  0  0
   -2.9224    1.7131    0.0000 C   0  0  0  0  0  0  0  0  0  0  0  0
   -1.4958    2.1766    0.0000 C   0  0  0  0  0  0  0  0  0  0  0  0
   -0.0692    2.6401    0.0000 C   0  0  0  0  0  0  0  0  0  0  0  0
    0.3943    1.2135    0.0000 C   0  0  0  0  0  0  0  0  0  0  0  0
    1.7308    1.8945    0.0000 O   0  0  0  0  0  0  0  0  0  0  0  0
    1.2760    0.0000    0.0000 C   0  0  0  0  0  0  0  0  0  0  0  0
    0.3943   -1.2135    0.0000 C   0  0  0  0  0  0  0  0  0  0  0  0
    1.6933   -1.9635    0.0000 C   0  0  0  0  0  0  0  0  0  0  0  0
    3.1891   -2.0756    0.0000 C   0  0  0  0  0  0  0  0  0  0  0  0
    4.0341   -3.3150    0.0000 C   0  0  0  0  0  0  0  0  0  0  0  0
    3.5920   -4.7483    0.0000 C   0  0  0  0  0  0  0  0  0  0  0  0
    2.1957   -5.2963    0.0000 C   0  0  0  0  0  0  0  0  0  0  0  0
    0.8966   -4.5463    0.0000 C   0  0  0  0  0  0  0  0  0  0  0  0
    0.6731   -3.0631    0.0000 C   0  0  0  0  0  0  0  0  0  0  0  0
   -0.7232   -3.6111    0.0000 C   0  0  0  0  0  0  0  0  0  0  0  0
   -0.1719   -1.8237    0.0000 O   0  0  0  0  0  0  0  0  0  0  0  0
   -1.0323   -0.7500    0.0000 O   0  0  0  0  0  0  0  0  0  0  0  0
   -1.0323    0.7500    0.0000 C   0  0  0  0  0  0  0  0  0  0  0  0
   -7.2022    0.3225    0.0000 H   0  0  0  0  0  0  0  0  0  0  0  0
   -5.3120   -0.6406    0.0000 H   0  0  0  0  0  0  0  0  0  0  0  0
   -6.2391    2.2126    0.0000 H   0  0  0  0  0  0  0  0  0  0  0  0
   -3.8855   -0.1771    0.0000 H   0  0  0  0  0  0  0  0  0  0  0  0
   -4.8125    2.6761    0.0000 H   0  0  0  0  0  0  0  0  0  0  0  0
   -2.6362    0.2406    0.0000 H   0  0  0  0  0  0  0  0  0  0  0  0
   -3.3859    3.1396    0.0000 H   0  0  0  0  0  0  0  0  0  0  0  0
   -1.9593    3.6032    0.0000 H   0  0  0  0  0  0  0  0  0  0  0  0
   -0.5328    4.0667    0.0000 H   0  0  0  0  0  0  0  0  0  0  0  0
    1.0319    3.1536    0.0000 H   0  0  0  0  0  0  0  0  0  0  0  0
    1.9418    3.0910    0.0000 H   0  0  0  0  0  0  0  0  0  0  0  0
    2.3907    1.0037    0.0000 H   0  0  0  0  0  0  0  0  0  0  0  0
    2.6004   -0.7041    0.0000 H   0  0  0  0  0  0  0  0  0  0  0  0
   -0.0965   -1.8417    0.0000 H   0  0  0  0  0  0  0  0  0  0  0  0
    2.1355   -0.5302    0.0000 H   0  0  0  0  0  0  0  0  0  0  0  0
    3.3311   -0.5824    0.0000 H   0  0  0  0  0  0  0  0  0  0  0  0
    4.5082   -1.3615    0.0000 H   0  0  0  0  0  0  0  0  0  0  0  0
    5.1808   -2.3480    0.0000 H   0  0  0  0  0  0  0  0  0  0  0  0
    5.4149   -3.9010    0.0000 H   0  0  0  0  0  0  0  0  0  0  0  0
    5.0630   -5.0419    0.0000 H   0  0  0  0  0  0  0  0  0  0  0  0
    3.9947   -6.1933    0.0000 H   0  0  0  0  0  0  0  0  0  0  0  0
    2.8833   -6.6295    0.0000 H   0  0  0  0  0  0  0  0  0  0  0  0
    1.3171   -6.5121    0.0000 H   0  0  0  0  0  0  0  0  0  0  0  0
    0.2831   -5.9151    0.0000 H   0  0  0  0  0  0  0  0  0  0  0  0
   -0.6017   -4.6174    0.0000 H   0  0  0  0  0  0  0  0  0  0  0  0
   -2.1195   -4.1591    0.0000 H   0  0  0  0  0  0  0  0  0  0  0  0
   -1.4374   -2.2920    0.0000 H   0  0  0  0  0  0  0  0  0  0  0  0
   -0.3495   -5.0638    0.0000 H   0  0  0  0  0  0  0  0  0  0  0  0
   -1.6702   -1.7527    0.0000 H   0  0  0  0  0  0  0  0  0  0  0  0
   -2.4742    0.3365    0.0000 H   0  0  0  0  0  0  0  0  0  0  0  0
  1  2  1  0
  2  3  1  0
  3  4  1  0
  4  5  1  0
  5  6  1  0
  6  7  1  0
  6  8  1  0
  8  9  1  0
  9 10  1  0
 10 11  1  0
 11 12  1  0
 12 13  1  0
 13 14  1  0
 14 15  1  0
 15 16  1  0
 16 17  1  0
 16 18  1  0
  9 19  1  0
 19 20  1  0
 20  4  1  0
 20  6  1  0
 16 10  1  0
  1 21  1  0
  1 22  1  0
  1 23  1  0
  2 24  1  0
  2 25  1  0
  3 26  1  0
  3 27  1  0
  4 28  1  0
  5 29  1  0
  5 30  1  0
  7 31  1  0
  8 32  1  0
  8 33  1  0
  9 34  1  0
 10 35  1  0
 11 36  1  0
 11 37  1  0
 12 38  1  0
 12 39  1  0
 13 40  1  0
 13 41  1  0
 14 42  1  0
 14 43  1  0
 15 44  1  0
 15 45  1  0
 17 46  1  0
 17 47  1  0
 17 48  1  0
 18 49  1  0
 20 50  1  0
M  END
$$$$
