
     RDKit          3D

 45 58  0  0  0  0  0  0  0  0999 V2000
   23.2782  -20.3571  -20.8049 O   0  0  0  0  0  0  0  0  0  0  0  0
   24.7472  -21.4195  -18.7690 C   0  0  0  0  0  0  0  0  0  0  0  0
   25.0106  -22.8172  -18.2287 C   0  0  0  0  0  0  0  0  0  0  0  0
   23.1527  -22.5094  -20.3783 C   0  0  0  0  0  0  0  0  0  0  0  0
   23.7730  -21.3103  -20.0673 C   0  0  0  0  0  0  0  0  0  0  0  0
   26.0329  -23.4519  -19.4942 C   0  0  0  0  0  0  0  0  0  0  0  0
   23.2050  -23.9470  -16.5098 C   0  0  0  0  0  0  0  0  0  0  0  0
   26.7544  -24.8101  -20.2307 C   0  0  0  0  0  0  0  0  0  0  0  0
   27.7985  -26.0802  -20.3448 C   0  0  0  0  0  0  0  0  0  0  0  0
   22.0275  -24.1963  -16.1923 C   0  0  0  0  0  0  0  0  0  0  0  0
   21.9350  -24.4933  -18.1099 C   0  0  0  0  0  0  0  0  0  0  0  0
   23.4646  -22.8964  -15.5767 C   0  0  0  0  0  0  0  0  0  0  0  0
   24.9314  -23.2200  -14.7638 C   0  0  0  0  0  0  0  0  0  0  0  0
   25.5745  -23.0367  -16.0403 C   0  0  0  0  0  0  0  0  0  0  0  0
   28.9858  -26.1590  -19.3471 C   0  0  0  0  0  0  0  0  0  0  0  0
   25.3151  -24.6085  -15.2647 C   0  0  0  0  0  0  0  0  0  0  0  0
   21.8711  -23.0448  -19.4801 C   0  0  0  0  0  0  0  0  0  0  0  0
   28.9806  -24.8120  -18.2586 C   0  0  0  0  0  0  0  0  0  0  0  0
   26.7247  -23.0667  -18.3671 C   0  0  0  0  0  0  0  0  0  0  0  0
   29.8004  -25.5920  -16.9814 C   0  0  0  0  0  0  0  0  0  0  0  0
   31.2255  -26.0508  -17.4964 C   0  0  0  0  0  0  0  0  0  0  0  0
   31.4119  -27.2836  -18.1684 C   0  0  0  0  0  0  0  0  0  0  0  0
   30.1415  -28.1192  -17.8783 C   0  0  0  0  0  0  0  0  0  0  0  0
   28.1050  -23.3982  -17.7206 C   0  0  0  0  0  0  0  0  0  0  0  0
   28.9489  -27.6828  -18.8259 C   0  0  0  0  0  0  0  0  0  0  0  0
   20.4690  -23.3686  -19.9964 C   0  0  0  0  0  0  0  0  0  0  0  0
   23.9909  -24.3311  -14.3268 C   0  0  0  0  0  0  0  0  0  0  0  0
   19.0665  -22.4713  -19.4940 C   0  0  0  0  0  0  0  0  0  0  0  0
   17.7282  -21.5874  -17.3957 C   0  0  0  0  0  0  0  0  0  0  0  0
   27.3473  -27.9689  -18.2855 C   0  0  0  0  0  0  0  0  0  0  0  0
   26.2927  -27.8646  -19.3120 N   0  0  0  0  0  0  0  0  0  0  0  0
   20.0909  -22.0965  -15.0748 C   0  0  0  0  0  0  0  0  0  0  0  0
   19.1357  -24.0852  -19.5366 C   0  0  0  0  0  0  0  0  0  0  0  0
   21.5545  -20.9119  -15.2720 C   0  0  0  0  0  0  0  0  0  0  0  0
   22.7296  -22.4256  -15.3017 C   0  0  0  0  0  0  0  0  0  0  0  0
   22.1904  -21.6794  -17.3958 C   0  0  0  0  0  0  0  0  0  0  0  0
   20.4164  -22.5899  -16.8497 C   0  0  0  0  0  0  0  0  0  0  0  0
   24.3005  -22.5934  -17.8680 C   0  0  0  0  0  0  0  0  0  0  0  0
   20.6790  -21.3923  -13.8751 C   0  0  0  0  0  0  0  0  0  0  0  0
   23.4116  -20.8070  -16.7864 C   0  0  0  0  0  0  0  0  0  0  0  0
   18.8754  -22.6328  -17.0762 O   0  0  0  0  0  0  0  0  0  0  0  0
   21.1818  -19.3718  -17.1359 C   0  0  0  0  0  0  0  0  0  0  0  0
   26.9105  -27.4424  -20.6006 C   0  0  0  0  0  0  0  0  0  0  0  0
   18.6253  -21.2028  -18.6385 C   0  0  0  0  0  0  0  0  0  0  0  0
   21.1252  -19.5606  -18.9649 C   0  0  0  0  0  0  0  0  0  0  0  0
  3  2  1  0
  5  1  2  0
  5  2  1  0
  5  4  1  0
  6  3  1  0
  7  3  1  0
  8  6  1  0
  9  8  1  0
 10  7  1  0
 11 10  1  0
 12  7  1  0
 13 12  1  0
 14 13  1  0
 15  9  1  0
 16 13  1  0
 16 14  1  0
 17  4  1  0
 17 11  1  0
 18 15  1  0
 19  3  1  0
 19  6  1  0
 20 18  1  0
 21 20  1  0
 22 21  1  0
 23 22  1  0
 24 18  1  0
 24 19  1  0
 25 15  1  0
 25 23  1  0
 26 17  1  0
 27 12  1  0
 27 13  1  0
 27 16  1  0
 28 26  1  0
 30 25  1  0
 31 30  1  0
 33 26  1  0
 33 28  1  0
 34 32  1  0
 35  7  1  0
 35 10  1  0
 35 34  1  0
 37 32  1  0
 37 36  1  0
 38  2  1  0
 38 14  1  0
 38 36  1  0
 39 32  2  0
 40 12  1  0
 40 36  1  0
 41 29  1  0
 41 37  1  0
 42 34  1  0
 43  9  1  0
 43 31  1  0
 44 28  1  0
 44 29  1  0
 45 42  1  0
M  END
$$$$
