
     RDKit          2D

 87 92  0  0  0  0  0  0  0  0999 V2000
    1.2781   -9.8467    0.0000 C   0  0  0  0  0  0  0  0  0  0  0  0
    2.7453   -9.5349    0.0000 C   0  0  0  0  0  0  0  0  0  0  0  0
    4.2125   -9.2230    0.0000 C   0  0  0  0  0  0  0  0  0  0  0  0
    5.6798   -8.9111    0.0000 C   0  0  0  0  0  0  0  0  0  0  0  0
    7.1470   -8.5993    0.0000 C   0  0  0  0  0  0  0  0  0  0  0  0
    8.6142   -8.2874    0.0000 C   0  0  0  0  0  0  0  0  0  0  0  0
   10.0814   -7.9755    0.0000 N   0  0  0  0  0  0  0  0  0  0  0  0
    3.9007   -7.7558    0.0000 C   0  0  0  0  0  0  0  0  0  0  0  0
    3.5888   -6.2885    0.0000 C   0  0  0  0  0  0  0  0  0  0  0  0
    3.2769   -4.8213    0.0000 C   0  0  0  0  0  0  0  0  0  0  0  0
    2.9651   -3.3541    0.0000 N   0  0  0  0  0  0  0  0  0  0  0  0
    4.0798   -2.3504    0.0000 Br  0  0  0  0  0  0  0  0  0  0  0  0
    1.5385   -2.8906    0.0000 C   0  0  0  0  0  0  0  0  0  0  0  0
    0.1119   -2.4271    0.0000 C   0  0  0  0  0  0  0  0  0  0  0  0
   -1.3147   -1.9635    0.0000 C   0  0  0  0  0  0  0  0  0  0  0  0
   -2.7413   -2.4271    0.0000 C   0  0  0  0  0  0  0  0  0  0  0  0
   -1.8596   -3.6406    0.0000 C   0  0  0  0  0  0  0  0  0  0  0  0
   -4.1679   -1.9635    0.0000 C   0  0  0  0  0  0  0  0  0  0  0  0
   -5.0495   -0.7500    0.0000 C   0  0  0  0  0  0  0  0  0  0  0  0
   -6.4761   -1.2135    0.0000 N   0  0  0  0  0  0  0  0  0  0  0  0
   -7.5908   -0.2098    0.0000 C   0  0  0  0  0  0  0  0  0  0  0  0
   -6.7960    1.0622    0.0000 C   0  0  0  0  0  0  0  0  0  0  0  0
   -6.0011    2.3343    0.0000 C   0  0  0  0  0  0  0  0  0  0  0  0
   -8.9816    0.3521    0.0000 C   0  0  0  0  0  0  0  0  0  0  0  0
   -8.7729   -1.1333    0.0000 C   0  0  0  0  0  0  0  0  0  0  0  0
   -5.0495    0.7500    0.0000 N   0  0  0  0  0  0  0  0  0  0  0  0
   -4.1679    1.9635    0.0000 C   0  0  0  0  0  0  0  0  0  0  0  0
   -2.7413    2.4271    0.0000 C   0  0  0  0  0  0  0  0  0  0  0  0
   -1.3147    1.9635    0.0000 C   0  0  0  0  0  0  0  0  0  0  0  0
   -0.4330    0.7500    0.0000 C   0  0  0  0  0  0  0  0  0  0  0  0
    0.5707    1.8647    0.0000 O   0  0  0  0  0  0  0  0  0  0  0  0
    0.8660    0.0000    0.0000 C   0  0  0  0  0  0  0  0  0  0  0  0
   -0.4330   -0.7500    0.0000 C   0  0  0  0  0  0  0  0  0  0  0  0
   -3.8560    3.4307    0.0000 C   0  0  0  0  0  0  0  0  0  0  0  0
   -4.9707    4.4344    0.0000 C   0  0  0  0  0  0  0  0  0  0  0  0
   -5.2826    2.9672    0.0000 C   0  0  0  0  0  0  0  0  0  0  0  0
   -0.1891  -10.1586    0.0000 H   0  0  0  0  0  0  0  0  0  0  0  0
    1.5900  -11.3139    0.0000 H   0  0  0  0  0  0  0  0  0  0  0  0
    0.9662   -8.3795    0.0000 H   0  0  0  0  0  0  0  0  0  0  0  0
    2.4569   -8.6974    0.0000 H   0  0  0  0  0  0  0  0  0  0  0  0
    3.0572  -11.0021    0.0000 H   0  0  0  0  0  0  0  0  0  0  0  0
    4.5244  -10.6902    0.0000 H   0  0  0  0  0  0  0  0  0  0  0  0
    5.9916  -10.3783    0.0000 H   0  0  0  0  0  0  0  0  0  0  0  0
    5.6026   -8.0288    0.0000 H   0  0  0  0  0  0  0  0  0  0  0  0
    7.4588  -10.0665    0.0000 H   0  0  0  0  0  0  0  0  0  0  0  0
    6.8351   -7.1320    0.0000 H   0  0  0  0  0  0  0  0  0  0  0  0
    8.3023   -6.8202    0.0000 H   0  0  0  0  0  0  0  0  0  0  0  0
    8.9261   -9.7546    0.0000 H   0  0  0  0  0  0  0  0  0  0  0  0
   11.0851   -9.0902    0.0000 H   0  0  0  0  0  0  0  0  0  0  0  0
   10.5449   -6.5489    0.0000 H   0  0  0  0  0  0  0  0  0  0  0  0
    3.0183   -7.8329    0.0000 H   0  0  0  0  0  0  0  0  0  0  0  0
    4.7381   -7.4674    0.0000 H   0  0  0  0  0  0  0  0  0  0  0  0
    5.0560   -5.9767    0.0000 H   0  0  0  0  0  0  0  0  0  0  0  0
    2.1216   -6.6004    0.0000 H   0  0  0  0  0  0  0  0  0  0  0  0
    1.8097   -5.1332    0.0000 H   0  0  0  0  0  0  0  0  0  0  0  0
    4.7442   -4.5095    0.0000 H   0  0  0  0  0  0  0  0  0  0  0  0
    1.0750   -4.3172    0.0000 H   0  0  0  0  0  0  0  0  0  0  0  0
    2.1724   -1.5311    0.0000 H   0  0  0  0  0  0  0  0  0  0  0  0
    0.7459   -1.0676    0.0000 H   0  0  0  0  0  0  0  0  0  0  0  0
   -0.1922   -3.3630    0.0000 H   0  0  0  0  0  0  0  0  0  0  0  0
   -1.0501   -3.0245    0.0000 H   0  0  0  0  0  0  0  0  0  0  0  0
   -3.3957   -3.6078    0.0000 H   0  0  0  0  0  0  0  0  0  0  0  0
   -0.9779   -4.8541    0.0000 H   0  0  0  0  0  0  0  0  0  0  0  0
   -2.9518   -4.4341    0.0000 H   0  0  0  0  0  0  0  0  0  0  0  0
   -0.7674   -2.8471    0.0000 H   0  0  0  0  0  0  0  0  0  0  0  0
   -4.3507   -3.4523    0.0000 H   0  0  0  0  0  0  0  0  0  0  0  0
   -5.5944   -2.4271    0.0000 H   0  0  0  0  0  0  0  0  0  0  0  0
   -6.7880   -2.6807    0.0000 H   0  0  0  0  0  0  0  0  0  0  0  0
   -7.9617    2.0063    0.0000 H   0  0  0  0  0  0  0  0  0  0  0  0
   -5.3694    0.5988    0.0000 H   0  0  0  0  0  0  0  0  0  0  0  0
   -5.5376    3.7609    0.0000 H   0  0  0  0  0  0  0  0  0  0  0  0
   -7.3606    2.9682    0.0000 H   0  0  0  0  0  0  0  0  0  0  0  0
   -4.5047    2.2298    0.0000 H   0  0  0  0  0  0  0  0  0  0  0  0
   -8.8509    1.8464    0.0000 H   0  0  0  0  0  0  0  0  0  0  0  0
  -10.4807    0.4044    0.0000 H   0  0  0  0  0  0  0  0  0  0  0  0
  -10.1994   -1.5968    0.0000 H   0  0  0  0  0  0  0  0  0  0  0  0
   -8.0686   -2.4577    0.0000 H   0  0  0  0  0  0  0  0  0  0  0  0
   -2.1552    3.8078    0.0000 H   0  0  0  0  0  0  0  0  0  0  0  0
   -1.1318    3.4523    0.0000 H   0  0  0  0  0  0  0  0  0  0  0  0
   -0.0427    2.7585    0.0000 H   0  0  0  0  0  0  0  0  0  0  0  0
    2.0650    1.7340    0.0000 H   0  0  0  0  0  0  0  0  0  0  0  0
    1.9631    1.0230    0.0000 H   0  0  0  0  0  0  0  0  0  0  0  0
    1.9631   -1.0230    0.0000 H   0  0  0  0  0  0  0  0  0  0  0  0
    0.9036   -1.4309    0.0000 H   0  0  0  0  0  0  0  0  0  0  0  0
   -4.1758    5.7065    0.0000 H   0  0  0  0  0  0  0  0  0  0  0  0
   -6.3615    4.9964    0.0000 H   0  0  0  0  0  0  0  0  0  0  0  0
   -6.7805    3.0458    0.0000 H   0  0  0  0  0  0  0  0  0  0  0  0
  1  2  1  0
  2  3  1  0
  3  4  1  0
  4  5  1  0
  5  6  1  0
  6  7  1  0
  3  8  1  0
  8  9  1  0
  9 10  1  0
 10 11  1  0
 11 12  1  0
 11 13  1  0
 13 14  1  0
 14 15  1  0
 15 16  1  0
 16 17  1  0
 16 18  1  0
 18 19  1  0
 19 20  1  0
 20 21  1  0
 21 22  1  0
 22 23  1  0
 21 24  1  0
 24 25  1  0
 19 26  2  0
 26 27  1  0
 27 28  1  0
 28 29  1  0
 29 30  1  0
 30 31  1  0
 30 32  1  0
 32 33  1  0
 28 34  1  0
 34 35  1  0
 35 36  1  0
 33 15  1  0
 36 34  1  0
 25 21  1  0
 34 27  1  0
 36 27  1  0
 33 30  1  0
  1 37  1  0
  1 38  1  0
  1 39  1  0
  2 40  1  0
  2 41  1  0
  3 42  1  0
  4 43  1  0
  4 44  1  0
  5 45  1  0
  5 46  1  0
  6 47  1  0
  6 48  1  0
  7 49  1  0
  7 50  1  0
  8 51  1  0
  8 52  1  0
  9 53  1  0
  9 54  1  0
 10 55  1  0
 10 56  1  0
 13 57  1  0
 13 58  1  0
 14 59  1  0
 14 60  1  0
 15 61  1  0
 16 62  1  0
 17 63  1  0
 17 64  1  0
 17 65  1  0
 18 66  1  0
 18 67  1  0
 20 68  1  0
 22 69  1  0
 22 70  1  0
 23 71  1  0
 23 72  1  0
 23 73  1  0
 24 74  1  0
 24 75  1  0
 25 76  1  0
 25 77  1  0
 28 78  1  0
 29 79  1  0
 29 80  1  0
 31 81  1  0
 32 82  1  0
 32 83  1  0
 33 84  1  0
 35 85  1  0
 35 86  1  0
 36 87  1  0
M  END
$$$$
