
     RDKit          2D

115120  0  0  0  0  0  0  0  0999 V2000
   -4.8881   -1.4923    0.0000 C   0  0  0  0  0  0  0  0  0  0  0  0
   -4.2149   -2.8327    0.0000 C   0  0  0  0  0  0  0  0  0  0  0  0
   -3.5417   -4.1732    0.0000 C   0  0  0  0  0  0  0  0  0  0  0  0
   -2.8685   -5.5136    0.0000 C   0  0  0  0  0  0  0  0  0  0  0  0
   -2.1953   -6.8541    0.0000 C   0  0  0  0  0  0  0  0  0  0  0  0
   -1.5221   -8.1945    0.0000 C   0  0  0  0  0  0  0  0  0  0  0  0
   -0.8489   -9.5350    0.0000 C   0  0  0  0  0  0  0  0  0  0  0  0
   -0.1757  -10.8754    0.0000 C   0  0  0  0  0  0  0  0  0  0  0  0
    0.4975  -12.2159    0.0000 C   0  0  0  0  0  0  0  0  0  0  0  0
    1.1707  -13.5563    0.0000 C   0  0  0  0  0  0  0  0  0  0  0  0
    2.5112  -12.8831    0.0000 C   0  0  0  0  0  0  0  0  0  0  0  0
    1.8439  -14.8968    0.0000 C   0  0  0  0  0  0  0  0  0  0  0  0
    3.3414  -14.9840    0.0000 C   0  0  0  0  0  0  0  0  0  0  0  0
   -4.2089   -6.1868    0.0000 C   0  0  0  0  0  0  0  0  0  0  0  0
   -5.5494   -6.8600    0.0000 C   0  0  0  0  0  0  0  0  0  0  0  0
   -3.5357   -7.5273    0.0000 C   0  0  0  0  0  0  0  0  0  0  0  0
   -2.2012   -3.5000    0.0000 C   0  0  0  0  0  0  0  0  0  0  0  0
   -0.8608   -2.8268    0.0000 C   0  0  0  0  0  0  0  0  0  0  0  0
   -1.5340   -1.4863    0.0000 C   0  0  0  0  0  0  0  0  0  0  0  0
    0.4797   -2.1536    0.0000 C   0  0  0  0  0  0  0  0  0  0  0  0
    1.7329   -2.9779    0.0000 C   0  0  0  0  0  0  0  0  0  0  0  0
   -2.8744   -2.1595    0.0000 C   0  0  0  0  0  0  0  0  0  0  0  0
   -1.3972   -1.8991    0.0000 C   0  0  0  0  0  0  0  0  0  0  0  0
    0.7353   -1.4943    0.0000 C   0  0  0  0  0  0  0  0  0  0  0  0
    2.2296   -1.6250    0.0000 C   0  0  0  0  0  0  0  0  0  0  0  0
    0.8660    0.0000    0.0000 C   0  0  0  0  0  0  0  0  0  0  0  0
   -0.4330    0.7500    0.0000 C   0  0  0  0  0  0  0  0  0  0  0  0
   -1.3972    1.8991    0.0000 C   0  0  0  0  0  0  0  0  0  0  0  0
   -2.8744    2.1595    0.0000 C   0  0  0  0  0  0  0  0  0  0  0  0
   -4.1734    1.4095    0.0000 C   0  0  0  0  0  0  0  0  0  0  0  0
   -5.6709    1.4968    0.0000 C   0  0  0  0  0  0  0  0  0  0  0  0
   -4.6865    0.0000    0.0000 C   0  0  0  0  0  0  0  0  0  0  0  0
   -5.6507   -1.1491    0.0000 C   0  0  0  0  0  0  0  0  0  0  0  0
   -6.7753   -2.1416    0.0000 C   0  0  0  0  0  0  0  0  0  0  0  0
   -6.7006   -3.6397    0.0000 C   0  0  0  0  0  0  0  0  0  0  0  0
   -8.1778   -3.3793    0.0000 C   0  0  0  0  0  0  0  0  0  0  0  0
   -9.1420   -4.5283    0.0000 C   0  0  0  0  0  0  0  0  0  0  0  0
   -8.6908   -1.9697    0.0000 C   0  0  0  0  0  0  0  0  0  0  0  0
   -9.2038   -0.5602    0.0000 C   0  0  0  0  0  0  0  0  0  0  0  0
   -5.4827   -4.5153    0.0000 C   0  0  0  0  0  0  0  0  0  0  0  0
   -4.0387   -4.1091    0.0000 C   0  0  0  0  0  0  0  0  0  0  0  0
   -2.5504   -3.9226    0.0000 C   0  0  0  0  0  0  0  0  0  0  0  0
   -3.4561   -2.7269    0.0000 C   0  0  0  0  0  0  0  0  0  0  0  0
   -4.1734   -1.4095    0.0000 C   0  0  0  0  0  0  0  0  0  0  0  0
   -0.4330   -0.7500    0.0000 C   0  0  0  0  0  0  0  0  0  0  0  0
   -5.7196   -0.2439    0.0000 H   0  0  0  0  0  0  0  0  0  0  0  0
   -4.7900   -5.0048    0.0000 H   0  0  0  0  0  0  0  0  0  0  0  0
   -1.4049   -5.1848    0.0000 H   0  0  0  0  0  0  0  0  0  0  0  0
   -0.8548   -6.1809    0.0000 H   0  0  0  0  0  0  0  0  0  0  0  0
   -3.3330   -7.8316    0.0000 H   0  0  0  0  0  0  0  0  0  0  0  0
   -0.1816   -7.5213    0.0000 H   0  0  0  0  0  0  0  0  0  0  0  0
   -2.7705   -9.0261    0.0000 H   0  0  0  0  0  0  0  0  0  0  0  0
    0.4916   -8.8618    0.0000 H   0  0  0  0  0  0  0  0  0  0  0  0
   -2.1893  -10.2082    0.0000 H   0  0  0  0  0  0  0  0  0  0  0  0
   -1.5161  -11.5486    0.0000 H   0  0  0  0  0  0  0  0  0  0  0  0
    1.1648  -10.2022    0.0000 H   0  0  0  0  0  0  0  0  0  0  0  0
    1.7459  -11.3843    0.0000 H   0  0  0  0  0  0  0  0  0  0  0  0
   -0.8429  -12.8891    0.0000 H   0  0  0  0  0  0  0  0  0  0  0  0
   -0.1697  -14.2295    0.0000 H   0  0  0  0  0  0  0  0  0  0  0  0
    3.8516  -12.2099    0.0000 H   0  0  0  0  0  0  0  0  0  0  0  0
    3.4887  -14.0208    0.0000 H   0  0  0  0  0  0  0  0  0  0  0  0
    2.0064  -11.4706    0.0000 H   0  0  0  0  0  0  0  0  0  0  0  0
    1.0197  -16.1500    0.0000 H   0  0  0  0  0  0  0  0  0  0  0  0
    4.0146  -16.3244    0.0000 H   0  0  0  0  0  0  0  0  0  0  0  0
    4.1657  -13.7308    0.0000 H   0  0  0  0  0  0  0  0  0  0  0  0
   -5.3178   -5.1768    0.0000 H   0  0  0  0  0  0  0  0  0  0  0  0
   -6.8898   -7.5332    0.0000 H   0  0  0  0  0  0  0  0  0  0  0  0
   -5.0446   -8.2725    0.0000 H   0  0  0  0  0  0  0  0  0  0  0  0
   -6.3809   -5.6116    0.0000 H   0  0  0  0  0  0  0  0  0  0  0  0
   -3.0309   -8.9398    0.0000 H   0  0  0  0  0  0  0  0  0  0  0  0
   -4.7841   -8.3589    0.0000 H   0  0  0  0  0  0  0  0  0  0  0  0
   -2.0722   -7.1984    0.0000 H   0  0  0  0  0  0  0  0  0  0  0  0
   -1.2237   -4.6377    0.0000 H   0  0  0  0  0  0  0  0  0  0  0  0
   -0.1876   -4.1672    0.0000 H   0  0  0  0  0  0  0  0  0  0  0  0
   -2.2072   -0.1459    0.0000 H   0  0  0  0  0  0  0  0  0  0  0  0
   -0.5239   -0.3774    0.0000 H   0  0  0  0  0  0  0  0  0  0  0  0
   -3.0266   -1.6343    0.0000 H   0  0  0  0  0  0  0  0  0  0  0  0
    0.3837   -0.6567    0.0000 H   0  0  0  0  0  0  0  0  0  0  0  0
    3.1454   -2.4731    0.0000 H   0  0  0  0  0  0  0  0  0  0  0  0
    1.6457   -4.4753    0.0000 H   0  0  0  0  0  0  0  0  0  0  0  0
   -3.9655   -3.1889    0.0000 H   0  0  0  0  0  0  0  0  0  0  0  0
   -0.2314   -2.8430    0.0000 H   0  0  0  0  0  0  0  0  0  0  0  0
    0.6046   -2.9886    0.0000 H   0  0  0  0  0  0  0  0  0  0  0  0
    3.7287   -1.5726    0.0000 H   0  0  0  0  0  0  0  0  0  0  0  0
    2.4643   -3.1065    0.0000 H   0  0  0  0  0  0  0  0  0  0  0  0
    2.5415   -0.1578    0.0000 H   0  0  0  0  0  0  0  0  0  0  0  0
    2.3548    0.1828    0.0000 H   0  0  0  0  0  0  0  0  0  0  0  0
    0.6640    1.7730    0.0000 H   0  0  0  0  0  0  0  0  0  0  0  0
   -1.3884    3.3990    0.0000 H   0  0  0  0  0  0  0  0  0  0  0  0
   -0.1026    2.6566    0.0000 H   0  0  0  0  0  0  0  0  0  0  0  0
   -3.8319    3.3142    0.0000 H   0  0  0  0  0  0  0  0  0  0  0  0
   -2.3696    3.5721    0.0000 H   0  0  0  0  0  0  0  0  0  0  0  0
   -4.6947    2.8161    0.0000 H   0  0  0  0  0  0  0  0  0  0  0  0
   -7.1684    1.5840    0.0000 H   0  0  0  0  0  0  0  0  0  0  0  0
   -5.5837    2.9942    0.0000 H   0  0  0  0  0  0  0  0  0  0  0  0
   -6.1179    0.0649    0.0000 H   0  0  0  0  0  0  0  0  0  0  0  0
   -6.0672    0.5861    0.0000 H   0  0  0  0  0  0  0  0  0  0  0  0
   -6.7245   -0.1017    0.0000 H   0  0  0  0  0  0  0  0  0  0  0  0
   -7.1526   -0.6898    0.0000 H   0  0  0  0  0  0  0  0  0  0  0  0
   -8.2747   -2.1864    0.0000 H   0  0  0  0  0  0  0  0  0  0  0  0
   -7.4474   -4.9406    0.0000 H   0  0  0  0  0  0  0  0  0  0  0  0
  -10.6192   -4.2679    0.0000 H   0  0  0  0  0  0  0  0  0  0  0  0
   -8.6289   -5.9379    0.0000 H   0  0  0  0  0  0  0  0  0  0  0  0
  -10.1003   -2.4827    0.0000 H   0  0  0  0  0  0  0  0  0  0  0  0
   -7.3543   -1.2887    0.0000 H   0  0  0  0  0  0  0  0  0  0  0  0
   -9.7169    0.8494    0.0000 H   0  0  0  0  0  0  0  0  0  0  0  0
  -10.6134   -1.0732    0.0000 H   0  0  0  0  0  0  0  0  0  0  0  0
   -7.8673    0.1208    0.0000 H   0  0  0  0  0  0  0  0  0  0  0  0
   -6.6073   -5.5079    0.0000 H   0  0  0  0  0  0  0  0  0  0  0  0
   -5.1053   -5.9671    0.0000 H   0  0  0  0  0  0  0  0  0  0  0  0
   -4.1061   -5.6076    0.0000 H   0  0  0  0  0  0  0  0  0  0  0  0
   -1.7745   -5.2063    0.0000 H   0  0  0  0  0  0  0  0  0  0  0  0
   -1.0590   -3.7622    0.0000 H   0  0  0  0  0  0  0  0  0  0  0  0
   -2.3046   -1.7655    0.0000 H   0  0  0  0  0  0  0  0  0  0  0  0
   -1.2719    0.4935    0.0000 H   0  0  0  0  0  0  0  0  0  0  0  0
  1  2  3  0
  2  3  1  0
  3  4  1  0
  4  5  1  0
  5  6  1  0
  6  7  1  0
  7  8  1  0
  8  9  1  0
  9 10  1  0
 10 11  1  0
 10 12  1  0
 12 13  2  3
  4 14  1  0
 14 15  1  0
 14 16  1  0
  3 17  1  0
 17 18  1  0
 18 19  1  0
 18 20  1  0
 20 21  2  3
 17 22  1  0
 22 23  1  0
 23 24  1  0
 24 25  1  0
 24 26  1  0
 26 27  1  0
 27 28  1  0
 28 29  1  0
 29 30  1  0
 30 31  1  0
 30 32  1  0
 32 33  1  0
 33 34  1  0
 34 35  1  0
 35 36  1  0
 36 37  2  3
 36 38  1  0
 38 39  1  0
 35 40  1  0
 40 41  1  0
 41 42  1  0
 42 43  1  0
 43 44  1  0
 27 45  1  0
 44 22  1  0
 45 23  1  0
 45 26  1  0
 44 32  1  0
 44 33  1  0
 43 41  1  0
  1 46  1  0
  3 47  1  0
  4 48  1  0
  5 49  1  0
  5 50  1  0
  6 51  1  0
  6 52  1  0
  7 53  1  0
  7 54  1  0
  8 55  1  0
  8 56  1  0
  9 57  1  0
  9 58  1  0
 10 59  1  0
 11 60  1  0
 11 61  1  0
 11 62  1  0
 12 63  1  0
 13 64  1  0
 13 65  1  0
 14 66  1  0
 15 67  1  0
 15 68  1  0
 15 69  1  0
 16 70  1  0
 16 71  1  0
 16 72  1  0
 17 73  1  0
 18 74  1  0
 19 75  1  0
 19 76  1  0
 19 77  1  0
 20 78  1  0
 21 79  1  0
 21 80  1  0
 22 81  1  0
 23 82  1  0
 24 83  1  0
 25 84  1  0
 25 85  1  0
 25 86  1  0
 26 87  1  0
 27 88  1  0
 28 89  1  0
 28 90  1  0
 29 91  1  0
 29 92  1  0
 30 93  1  0
 31 94  1  0
 31 95  1  0
 31 96  1  0
 32 97  1  0
 33 98  1  0
 34 99  1  0
 34100  1  0
 35101  1  0
 37102  1  0
 37103  1  0
 38104  1  0
 38105  1  0
 39106  1  0
 39107  1  0
 39108  1  0
 40109  1  0
 40110  1  0
 41111  1  0
 42112  1  0
 42113  1  0
 43114  1  0
 45115  1  0
M  END
$$$$
