
     RDKit          2D

 76 77  0  0  0  0  0  0  0  0999 V2000
    4.9954   -2.8935    0.0000 C   0  0  0  0  0  0  0  0  0  0  0  0
    4.7718   -1.4103    0.0000 C   0  0  0  0  0  0  0  0  0  0  0  0
    5.9445   -0.4750    0.0000 C   0  0  0  0  0  0  0  0  0  0  0  0
    7.1173    0.4602    0.0000 C   0  0  0  0  0  0  0  0  0  0  0  0
    8.2900    1.3954    0.0000 C   0  0  0  0  0  0  0  0  0  0  0  0
    5.0093    0.6977    0.0000 C   0  0  0  0  0  0  0  0  0  0  0  0
    4.0741    1.8705    0.0000 C   0  0  0  0  0  0  0  0  0  0  0  0
    3.1388    3.0432    0.0000 C   0  0  0  0  0  0  0  0  0  0  0  0
    2.2036    4.2160    0.0000 C   0  0  0  0  0  0  0  0  0  0  0  0
    2.9013    0.9352    0.0000 C   0  0  0  0  0  0  0  0  0  0  0  0
    1.7286    0.0000    0.0000 C   0  0  0  0  0  0  0  0  0  0  0  0
    2.7638   -0.6361    0.0000 F   0  0  0  0  0  0  0  0  0  0  0  0
    1.0777    1.3515    0.0000 C   0  0  0  0  0  0  0  0  0  0  0  0
   -0.3846    1.6852    0.0000 C   0  0  0  0  0  0  0  0  0  0  0  0
   -1.5574    2.6205    0.0000 C   0  0  0  0  0  0  0  0  0  0  0  0
    0.2662    3.0367    0.0000 C   0  0  0  0  0  0  0  0  0  0  0  0
   -1.5574    0.7500    0.0000 C   0  0  0  0  0  0  0  0  0  0  0  0
   -1.5574   -0.7500    0.0000 C   0  0  0  0  0  0  0  0  0  0  0  0
   -2.2082   -2.1015    0.0000 C   0  0  0  0  0  0  0  0  0  0  0  0
   -2.8590   -3.4529    0.0000 C   0  0  0  0  0  0  0  0  0  0  0  0
   -3.5099   -4.8044    0.0000 C   0  0  0  0  0  0  0  0  0  0  0  0
   -4.1607   -6.1558    0.0000 C   0  0  0  0  0  0  0  0  0  0  0  0
   -0.3846   -1.6852    0.0000 N   0  0  0  0  0  0  0  0  0  0  0  0
    1.0777   -1.3515    0.0000 C   0  0  0  0  0  0  0  0  0  0  0  0
    2.5401   -1.6852    0.0000 C   0  0  0  0  0  0  0  0  0  0  0  0
    1.0777   -2.8515    0.0000 C   0  0  0  0  0  0  0  0  0  0  0  0
    1.5908   -4.2610    0.0000 C   0  0  0  0  0  0  0  0  0  0  0  0
    2.5550   -3.1119    0.0000 C   0  0  0  0  0  0  0  0  0  0  0  0
    3.9454   -3.9647    0.0000 H   0  0  0  0  0  0  0  0  0  0  0  0
    6.3917   -3.4415    0.0000 H   0  0  0  0  0  0  0  0  0  0  0  0
    3.6408   -0.9664    0.0000 H   0  0  0  0  0  0  0  0  0  0  0  0
    6.8798   -1.6478    0.0000 H   0  0  0  0  0  0  0  0  0  0  0  0
    7.5346   -0.2190    0.0000 H   0  0  0  0  0  0  0  0  0  0  0  0
    7.6866   -0.0978    0.0000 H   0  0  0  0  0  0  0  0  0  0  0  0
    9.4628    2.3307    0.0000 H   0  0  0  0  0  0  0  0  0  0  0  0
    9.2253    0.2227    0.0000 H   0  0  0  0  0  0  0  0  0  0  0  0
    7.3548    2.5682    0.0000 H   0  0  0  0  0  0  0  0  0  0  0  0
    6.2873    1.4830    0.0000 H   0  0  0  0  0  0  0  0  0  0  0  0
    6.0593    1.7689    0.0000 H   0  0  0  0  0  0  0  0  0  0  0  0
    5.2468    2.8057    0.0000 H   0  0  0  0  0  0  0  0  0  0  0  0
    4.3116    3.9785    0.0000 H   0  0  0  0  0  0  0  0  0  0  0  0
    2.0888    1.9720    0.0000 H   0  0  0  0  0  0  0  0  0  0  0  0
    1.2684    5.3887    0.0000 H   0  0  0  0  0  0  0  0  0  0  0  0
    3.3763    5.1512    0.0000 H   0  0  0  0  0  0  0  0  0  0  0  0
    0.9256    3.4307    0.0000 H   0  0  0  0  0  0  0  0  0  0  0  0
    2.1160    2.2132    0.0000 H   0  0  0  0  0  0  0  0  0  0  0  0
    3.6866   -0.3428    0.0000 H   0  0  0  0  0  0  0  0  0  0  0  0
    1.0777    2.8515    0.0000 H   0  0  0  0  0  0  0  0  0  0  0  0
    2.5401    1.6852    0.0000 H   0  0  0  0  0  0  0  0  0  0  0  0
   -2.7301    3.5557    0.0000 H   0  0  0  0  0  0  0  0  0  0  0  0
   -0.7721    3.8985    0.0000 H   0  0  0  0  0  0  0  0  0  0  0  0
   -2.6286    1.5705    0.0000 H   0  0  0  0  0  0  0  0  0  0  0  0
    0.9170    4.3881    0.0000 H   0  0  0  0  0  0  0  0  0  0  0  0
   -0.9959    3.8474    0.0000 H   0  0  0  0  0  0  0  0  0  0  0  0
    1.6869    2.5555    0.0000 H   0  0  0  0  0  0  0  0  0  0  0  0
   -3.0496    0.5970    0.0000 H   0  0  0  0  0  0  0  0  0  0  0  0
   -2.3681    2.0120    0.0000 H   0  0  0  0  0  0  0  0  0  0  0  0
   -3.0496   -0.5970    0.0000 H   0  0  0  0  0  0  0  0  0  0  0  0
   -3.5597   -1.4506    0.0000 H   0  0  0  0  0  0  0  0  0  0  0  0
   -1.0544   -3.0600    0.0000 H   0  0  0  0  0  0  0  0  0  0  0  0
   -4.2105   -2.8021    0.0000 H   0  0  0  0  0  0  0  0  0  0  0  0
   -1.5076   -4.1037    0.0000 H   0  0  0  0  0  0  0  0  0  0  0  0
   -4.8613   -4.1535    0.0000 H   0  0  0  0  0  0  0  0  0  0  0  0
   -2.1584   -5.4552    0.0000 H   0  0  0  0  0  0  0  0  0  0  0  0
   -4.8115   -7.5073    0.0000 H   0  0  0  0  0  0  0  0  0  0  0  0
   -2.8092   -6.8066    0.0000 H   0  0  0  0  0  0  0  0  0  0  0  0
   -5.5121   -5.5050    0.0000 H   0  0  0  0  0  0  0  0  0  0  0  0
   -0.7184   -3.1476    0.0000 H   0  0  0  0  0  0  0  0  0  0  0  0
    4.0025   -2.0190    0.0000 H   0  0  0  0  0  0  0  0  0  0  0  0
    2.5701   -3.1849    0.0000 H   0  0  0  0  0  0  0  0  0  0  0  0
    2.8739   -0.2228    0.0000 H   0  0  0  0  0  0  0  0  0  0  0  0
   -0.2925   -3.4616    0.0000 H   0  0  0  0  0  0  0  0  0  0  0  0
    0.2917   -5.0110    0.0000 H   0  0  0  0  0  0  0  0  0  0  0  0
    2.5550   -5.4101    0.0000 H   0  0  0  0  0  0  0  0  0  0  0  0
    3.7529   -4.0147    0.0000 H   0  0  0  0  0  0  0  0  0  0  0  0
    3.3938   -1.8684    0.0000 H   0  0  0  0  0  0  0  0  0  0  0  0
  1  2  2  3
  2  3  1  0
  3  4  1  0
  4  5  1  0
  3  6  1  0
  6  7  1  0
  7  8  1  0
  8  9  1  0
  7 10  1  0
 10 11  1  0
 11 12  1  0
 11 13  1  0
 13 14  1  0
 14 15  1  0
 14 16  1  0
 14 17  1  0
 17 18  1  0
 18 19  1  0
 19 20  1  0
 20 21  1  0
 21 22  1  0
 18 23  1  0
 23 24  1  0
 24 25  1  0
 24 26  1  0
 26 27  1  0
 27 28  1  0
 24 11  1  0
 28 26  1  0
  1 29  1  0
  1 30  1  0
  2 31  1  0
  3 32  1  0
  4 33  1  0
  4 34  1  0
  5 35  1  0
  5 36  1  0
  5 37  1  0
  6 38  1  0
  6 39  1  0
  7 40  1  0
  8 41  1  0
  8 42  1  0
  9 43  1  0
  9 44  1  0
  9 45  1  0
 10 46  1  0
 10 47  1  0
 13 48  1  0
 13 49  1  0
 15 50  1  0
 15 51  1  0
 15 52  1  0
 16 53  1  0
 16 54  1  0
 16 55  1  0
 17 56  1  0
 17 57  1  0
 18 58  1  0
 19 59  1  0
 19 60  1  0
 20 61  1  0
 20 62  1  0
 21 63  1  0
 21 64  1  0
 22 65  1  0
 22 66  1  0
 22 67  1  0
 23 68  1  0
 25 69  1  0
 25 70  1  0
 25 71  1  0
 26 72  1  0
 27 73  1  0
 27 74  1  0
 28 75  1  0
 28 76  1  0
M  END
$$$$
