
     RDKit          2D

 32 37  0  0  0  0  0  0  0  0999 V2000
   -6.9497   -1.6219    0.0000 O   0  0  0  0  0  0  0  0  0  0  0  0
   -5.9855   -2.7709    0.0000 C   0  0  0  0  0  0  0  0  0  0  0  0
   -4.6865   -2.0209    0.0000 C   0  0  0  0  0  0  0  0  0  0  0  0
   -3.2093   -1.7605    0.0000 C   0  0  0  0  0  0  0  0  0  0  0  0
   -1.7321   -1.5000    0.0000 C   0  0  0  0  0  0  0  0  0  0  0  0
   -1.7321    0.0000    0.0000 C   0  0  0  0  0  0  0  0  0  0  0  0
   -0.4330    0.7500    0.0000 N   0  0  0  0  0  0  0  0  0  0  0  0
    0.8660    0.0000    0.0000 C   0  0  0  0  0  0  0  0  0  0  0  0
    1.9267   -1.0607    0.0000 C   0  0  0  0  0  0  0  0  0  0  0  0
    2.9873   -0.0000    0.0000 C   0  0  0  0  0  0  0  0  0  0  0  0
    1.9267    1.0607    0.0000 C   0  0  0  0  0  0  0  0  0  0  0  0
   -0.4330   -0.7500    0.0000 C   0  0  0  0  0  0  0  0  0  0  0  0
   -4.6865   -3.5209    0.0000 C   0  0  0  0  0  0  0  0  0  0  0  0
   -4.6865   -5.0209    0.0000 C   0  0  0  0  0  0  0  0  0  0  0  0
   -3.3874   -4.2709    0.0000 C   0  0  0  0  0  0  0  0  0  0  0  0
   -8.4269   -1.8824    0.0000 H   0  0  0  0  0  0  0  0  0  0  0  0
   -6.9497   -3.9200    0.0000 H   0  0  0  0  0  0  0  0  0  0  0  0
   -5.1995   -0.6114    0.0000 H   0  0  0  0  0  0  0  0  0  0  0  0
   -3.4697   -0.2833    0.0000 H   0  0  0  0  0  0  0  0  0  0  0  0
   -2.9215   -2.7016    0.0000 H   0  0  0  0  0  0  0  0  0  0  0  0
   -1.2190   -2.9095    0.0000 H   0  0  0  0  0  0  0  0  0  0  0  0
   -3.0311    0.7500    0.0000 H   0  0  0  0  0  0  0  0  0  0  0  0
    2.9873   -2.1213    0.0000 H   0  0  0  0  0  0  0  0  0  0  0  0
    0.8660   -2.1213    0.0000 H   0  0  0  0  0  0  0  0  0  0  0  0
    4.0480    1.0607    0.0000 H   0  0  0  0  0  0  0  0  0  0  0  0
    4.0480   -1.0607    0.0000 H   0  0  0  0  0  0  0  0  0  0  0  0
    0.8660    2.1213    0.0000 H   0  0  0  0  0  0  0  0  0  0  0  0
    2.9873    2.1213    0.0000 H   0  0  0  0  0  0  0  0  0  0  0  0
   -6.1637   -5.2814    0.0000 H   0  0  0  0  0  0  0  0  0  0  0  0
   -4.1734   -6.4305    0.0000 H   0  0  0  0  0  0  0  0  0  0  0  0
   -2.4233   -5.4200    0.0000 H   0  0  0  0  0  0  0  0  0  0  0  0
   -2.6677   -3.5998    0.0000 H   0  0  0  0  0  0  0  0  0  0  0  0
  1  2  1  0
  2  3  1  0
  3  4  1  0
  4  5  1  0
  5  6  1  0
  6  7  1  0
  7  8  1  0
  8  9  1  0
  9 10  1  0
 10 11  1  0
 12  8  1  6
  3 13  1  0
 13 14  1  0
 14 15  1  0
 13  2  1  0
 12  5  1  0
 15 13  1  0
 12  6  1  0
 12  7  1  0
 11  8  1  0
  1 16  1  0
  2 17  1  6
  3 18  1  6
  4 19  1  0
  4 20  1  0
  5 21  1  1
  6 22  1  6
  9 23  1  0
  9 24  1  0
 10 25  1  0
 10 26  1  0
 11 27  1  0
 11 28  1  0
 14 29  1  0
 14 30  1  0
 15 31  1  0
 15 32  1  0
M  END
$$$$
