
     RDKit          2D

 47 50  0  0  0  0  0  0  0  0999 V2000
    3.1315    6.5248    0.0000 C   0  0  0  0  0  0  0  0  0  0  0  0
    1.6543    6.7852    0.0000 C   0  0  0  0  0  0  0  0  0  0  0  0
    0.7939    8.0140    0.0000 C   0  0  0  0  0  0  0  0  0  0  0  0
   -0.4348    7.1536    0.0000 C   0  0  0  0  0  0  0  0  0  0  0  0
    0.4256    5.9249    0.0000 C   0  0  0  0  0  0  0  0  0  0  0  0
   -0.8032    5.0645    0.0000 C   0  0  0  0  0  0  0  0  0  0  0  0
   -2.1626    5.6984    0.0000 C   0  0  0  0  0  0  0  0  0  0  0  0
   -2.0319    4.2041    0.0000 C   0  0  0  0  0  0  0  0  0  0  0  0
   -0.6724    3.5702    0.0000 C   0  0  0  0  0  0  0  0  0  0  0  0
    0.8219    3.4395    0.0000 C   0  0  0  0  0  0  0  0  0  0  0  0
    2.3162    3.3087    0.0000 C   0  0  0  0  0  0  0  0  0  0  0  0
    2.4469    4.8030    0.0000 C   0  0  0  0  0  0  0  0  0  0  0  0
    3.9412    4.6723    0.0000 C   0  0  0  0  0  0  0  0  0  0  0  0
    3.8104    3.1780    0.0000 C   0  0  0  0  0  0  0  0  0  0  0  0
    3.6797    1.6837    0.0000 C   0  0  0  0  0  0  0  0  0  0  0  0
    3.5490    0.1894    0.0000 Sb  0  0  0  0  0  3  0  0  0  0  0  0
    4.7777   -0.6709    0.0000 Se  0  0  0  0  0  2  0  0  0  0  0  0
    4.6470   -2.1652    0.0000 C   0  0  0  0  0  0  0  0  0  0  0  0
    3.1527   -2.0345    0.0000 C   0  0  0  0  0  0  0  0  0  0  0  0
    6.1413   -2.2960    0.0000 O   0  0  0  0  0  0  0  0  0  0  0  0
    4.0957    7.6738    0.0000 H   0  0  0  0  0  0  0  0  0  0  0  0
    3.8110    5.5175    0.0000 H   0  0  0  0  0  0  0  0  0  0  0  0
    2.0227    8.8743    0.0000 H   0  0  0  0  0  0  0  0  0  0  0  0
   -0.0664    9.2427    0.0000 H   0  0  0  0  0  0  0  0  0  0  0  0
   -1.2952    8.3823    0.0000 H   0  0  0  0  0  0  0  0  0  0  0  0
   -1.2083    6.9608    0.0000 H   0  0  0  0  0  0  0  0  0  0  0  0
    1.2859    4.6961    0.0000 H   0  0  0  0  0  0  0  0  0  0  0  0
   -2.0517    6.4878    0.0000 H   0  0  0  0  0  0  0  0  0  0  0  0
   -3.6569    5.8292    0.0000 H   0  0  0  0  0  0  0  0  0  0  0  0
   -3.2606    3.3438    0.0000 H   0  0  0  0  0  0  0  0  0  0  0  0
   -1.0607    2.1213    0.0000 H   0  0  0  0  0  0  0  0  0  0  0  0
    0.9526    4.9338    0.0000 H   0  0  0  0  0  0  0  0  0  0  0  0
    0.6911    1.9452    0.0000 H   0  0  0  0  0  0  0  0  0  0  0  0
    2.0042    1.8415    0.0000 H   0  0  0  0  0  0  0  0  0  0  0  0
    2.9353    6.2213    0.0000 H   0  0  0  0  0  0  0  0  0  0  0  0
    0.9526    4.9338    0.0000 H   0  0  0  0  0  0  0  0  0  0  0  0
    5.4355    4.5416    0.0000 H   0  0  0  0  0  0  0  0  0  0  0  0
    4.0719    6.1666    0.0000 H   0  0  0  0  0  0  0  0  0  0  0  0
    5.3047    3.0473    0.0000 H   0  0  0  0  0  0  0  0  0  0  0  0
    5.1740    1.5530    0.0000 H   0  0  0  0  0  0  0  0  0  0  0  0
    2.1806    1.6313    0.0000 H   0  0  0  0  0  0  0  0  0  0  0  0
    2.1895   -0.4445    0.0000 H   0  0  0  0  0  0  0  0  0  0  0  0
    4.5162   -3.6595    0.0000 H   0  0  0  0  0  0  0  0  0  0  0  0
    1.6584   -1.9038    0.0000 H   0  0  0  0  0  0  0  0  0  0  0  0
    3.0219   -3.5288    0.0000 H   0  0  0  0  0  0  0  0  0  0  0  0
    2.9179   -0.5530    0.0000 H   0  0  0  0  0  0  0  0  0  0  0  0
    6.7752   -3.6554    0.0000 H   0  0  0  0  0  0  0  0  0  0  0  0
  1  2  2  3
  2  3  1  0
  3  4  1  0
  4  5  1  0
  5  6  1  0
  6  7  1  0
  7  8  1  0
  8  9  1  0
  9 10  1  0
 10 11  1  0
 11 12  1  0
 12 13  1  0
 13 14  1  0
 14 15  1  0
 15 16  1  0
 16 17  1  0
 17 18  1  0
 18 19  1  0
 18 20  1  0
  5  2  1  0
  8  6  1  0
 14 11  1  0
  9  6  1  0
  1 21  1  0
  1 22  1  0
  3 23  1  0
  3 24  1  0
  4 25  1  0
  4 26  1  0
  5 27  1  0
  7 28  1  0
  7 29  1  0
  8 30  1  0
  9 31  1  0
 10 32  1  0
 10 33  1  0
 11 34  1  0
 12 35  1  0
 12 36  1  0
 13 37  1  0
 13 38  1  0
 14 39  1  0
 15 40  1  0
 15 41  1  0
 16 42  1  0
 18 43  1  0
 19 44  1  0
 19 45  1  0
 19 46  1  0
 20 47  1  0
M  END
$$$$
