
     RDKit          2D

 18 21  0  0  0  0  0  0  0  0999 V2000
   -1.9330   -2.2500    0.0000 C   0  0  0  0  0  0  0  0  0  0  0  0
   -1.9330   -0.7500    0.0000 C   0  0  0  0  0  0  0  0  0  0  0  0
   -3.4330   -0.7500    0.0000 C   0  0  0  0  0  0  0  0  0  0  0  0
   -3.4330    0.7500    0.0000 C   0  0  0  0  0  0  0  0  0  0  0  0
   -1.9330    0.7500    0.0000 N   0  0  0  0  0  0  0  0  0  0  0  0
   -0.4330    0.7500    0.0000 C   0  0  0  0  0  0  0  0  0  0  0  0
   -0.8396   -0.9057    0.0000 N   0  0  0  0  0  2  0  0  0  0  0  0
   -2.1812   -1.5765    0.0000 P   0  0  0  0  0  0  0  0  0  0  0  0
    0.8660    0.0000    0.0000 N   0  0  0  0  0  2  0  0  0  0  0  0
   -0.4330   -0.7500    0.0000 C   0  0  0  0  0  0  0  0  0  0  0  0
   -1.7502   -3.7388    0.0000 H   0  0  0  0  0  0  0  0  0  0  0  0
   -3.4330   -2.2500    0.0000 H   0  0  0  0  0  0  0  0  0  0  0  0
   -0.4442   -2.4328    0.0000 H   0  0  0  0  0  0  0  0  0  0  0  0
   -4.4937   -1.8107    0.0000 H   0  0  0  0  0  0  0  0  0  0  0  0
   -3.4330    2.2500    0.0000 H   0  0  0  0  0  0  0  0  0  0  0  0
   -4.9330    0.7500    0.0000 H   0  0  0  0  0  0  0  0  0  0  0  0
   -2.4530   -3.0517    0.0000 H   0  0  0  0  0  0  0  0  0  0  0  0
    0.1289   -2.1408    0.0000 H   0  0  0  0  0  0  0  0  0  0  0  0
  2  1  1  6
  2  3  1  0
  3  4  1  0
  4  5  1  0
  5  6  1  0
  6  7  1  0
  7  8  1  0
  6  9  1  6
  9 10  1  0
  5  2  1  0
 10  6  1  0
 10  2  1  0
  8  3  1  0
  1 11  1  0
  1 12  1  0
  1 13  1  0
  3 14  1  6
  4 15  1  0
  4 16  1  0
  8 17  1  0
 10 18  1  6
M  RAD  2   7   2   9   2
M  END
$$$$
