
     RDKit          3D

 17 17  0  0  0  0  0  0  0  0999 V2000
   14.2588  -21.7231   -8.5543 Cl  0  0  0  0  0  0  0  0  0  0  0  0
   11.9994  -17.7277   -7.3432 C   0  0  0  0  0  0  0  0  0  0  0  0
   10.8594  -17.8621   -6.3897 C   0  0  0  0  0  0  0  0  0  0  0  0
   10.1320  -20.0607   -5.2987 C   0  0  0  0  0  0  0  0  0  0  0  0
   10.2965  -19.2936   -6.7039 C   0  0  0  0  0  0  0  0  0  0  0  0
   12.1091  -20.9474   -7.2596 O   0  0  0  0  0  0  0  0  0  0  0  0
   11.8401  -18.8097   -8.4089 N   0  0  0  0  0  0  0  0  0  0  0  0
    9.2390  -22.0198   -9.2764 C   0  0  0  0  0  0  0  0  0  0  0  0
    8.6887  -22.7575  -10.6310 C   0  0  0  0  0  0  0  0  0  0  0  0
    8.6593  -21.6804  -11.6971 C   0  0  0  0  0  0  0  0  0  0  0  0
   13.4874  -20.7489   -7.2062 C   0  0  0  0  0  0  0  0  0  0  0  0
    9.0176  -24.2427  -11.3128 C   0  0  0  0  0  0  0  0  0  0  0  0
   10.4451  -20.8266   -9.1727 C   0  0  0  0  0  0  0  0  0  0  0  0
    9.0997  -22.3125   -6.0717 S   0  0  0  0  0  0  0  0  0  0  0  0
    8.0253  -25.5993  -11.0475 C   0  0  0  0  0  0  0  0  0  0  0  0
   11.1864  -20.0026   -7.8871 C   0  0  0  0  0  0  0  0  0  0  0  0
   10.2187  -21.5915   -5.4294 C   0  0  0  0  0  0  0  0  0  0  0  0
  3  2  1  0
  5  3  1  0
  5  4  1  0
  7  2  1  0
  9  8  1  0
 10  9  1  0
 11  1  1  0
 11  6  1  0
 12  9  1  0
 13  8  1  0
 15 12  1  0
 16  5  1  0
 16  6  1  0
 16  7  1  0
 16 13  1  0
 17  4  1  0
 17 14  2  0
M  END
$$$$
