
     RDKit          2D

 29 32  0  0  0  0  0  0  0  0999 V2000
   -0.7060    5.8191    0.0000 C   0  0  0  0  0  0  0  0  0  0  0  0
   -1.2190    4.4095    0.0000 C   0  0  0  0  0  0  0  0  0  0  0  0
    0.0800    3.6595    0.0000 C   0  0  0  0  0  0  0  0  0  0  0  0
    1.0442    2.5105    0.0000 C   0  0  0  0  0  0  0  0  0  0  0  0
   -0.4330    2.2500    0.0000 C   0  0  0  0  0  0  0  0  0  0  0  0
   -0.4330    0.7500    0.0000 C   0  0  0  0  0  0  0  0  0  0  0  0
    0.8660    0.0000    0.0000 C   0  0  0  0  0  0  0  0  0  0  0  0
   -0.4330   -0.7500    0.0000 C   0  0  0  0  0  0  0  0  0  0  0  0
   -1.7321    0.0000    0.0000 C   0  0  0  0  0  0  0  0  0  0  0  0
   -2.6962   -1.1491    0.0000 O   0  0  0  0  0  0  0  0  0  0  0  0
   -2.6962    1.1491    0.0000 O   0  0  0  0  0  0  0  0  0  0  0  0
   -2.6962    4.6700    0.0000 C   0  0  0  0  0  0  0  0  0  0  0  0
   -2.1832    3.2605    0.0000 C   0  0  0  0  0  0  0  0  0  0  0  0
   -0.1930    7.2286    0.0000 H   0  0  0  0  0  0  0  0  0  0  0  0
    0.6094    5.5154    0.0000 H   0  0  0  0  0  0  0  0  0  0  0  0
   -1.9088    6.4320    0.0000 H   0  0  0  0  0  0  0  0  0  0  0  0
    1.0674    4.5802    0.0000 H   0  0  0  0  0  0  0  0  0  0  0  0
    2.3432    3.2605    0.0000 H   0  0  0  0  0  0  0  0  0  0  0  0
    1.4910    1.6336    0.0000 H   0  0  0  0  0  0  0  0  0  0  0  0
   -1.2291    2.2917    0.0000 H   0  0  0  0  0  0  0  0  0  0  0  0
    1.5858    0.6712    0.0000 H   0  0  0  0  0  0  0  0  0  0  0  0
    1.8302   -1.1491    0.0000 H   0  0  0  0  0  0  0  0  0  0  0  0
   -0.4330   -2.2500    0.0000 H   0  0  0  0  0  0  0  0  0  0  0  0
   -4.1734   -0.8886    0.0000 H   0  0  0  0  0  0  0  0  0  0  0  0
   -4.1734    0.8886    0.0000 H   0  0  0  0  0  0  0  0  0  0  0  0
   -2.8608    6.0099    0.0000 H   0  0  0  0  0  0  0  0  0  0  0  0
   -4.1734    4.4095    0.0000 H   0  0  0  0  0  0  0  0  0  0  0  0
   -3.4822    2.5105    0.0000 H   0  0  0  0  0  0  0  0  0  0  0  0
   -1.7491    2.5919    0.0000 H   0  0  0  0  0  0  0  0  0  0  0  0
  1  2  1  0
  2  3  1  0
  3  4  1  0
  4  5  1  0
  5  6  1  0
  6  7  1  0
  7  8  1  0
  8  9  1  0
  9 10  1  0
  9 11  1  0
  2 12  1  0
 12 13  1  0
 13  2  1  0
  5  3  1  0
  8  6  1  0
  9  6  1  0
  1 14  1  0
  1 15  1  0
  1 16  1  0
  3 17  1  0
  4 18  1  0
  4 19  1  0
  5 20  1  0
  7 21  1  0
  7 22  1  0
  8 23  1  0
 10 24  1  0
 11 25  1  0
 12 26  1  0
 12 27  1  0
 13 28  1  0
 13 29  1  0
M  END
$$$$
