
     RDKit          2D

 52 56  0  0  0  0  0  0  0  0999 V2000
   -8.7872   -3.8106    0.0000 C   0  0  0  0  0  0  0  0  0  0  0  0
   -7.5171   -3.0125    0.0000 C   0  0  0  0  0  0  0  0  0  0  0  0
   -6.2471   -2.2145    0.0000 C   0  0  0  0  0  0  0  0  0  0  0  0
   -5.7516   -3.6303    0.0000 C   0  0  0  0  0  0  0  0  0  0  0  0
   -4.3358   -4.1257    0.0000 O   0  0  0  0  0  0  0  0  0  0  0  0
   -3.0657   -3.3277    0.0000 C   0  0  0  0  0  0  0  0  0  0  0  0
   -2.8978   -1.8371    0.0000 C   0  0  0  0  0  0  0  0  0  0  0  0
   -1.4489   -1.4489    0.0000 C   0  0  0  0  0  0  0  0  0  0  0  0
   -0.0000   -1.0607    0.0000 C   0  0  0  0  0  0  0  0  0  0  0  0
    1.0607    0.0000    0.0000 O   0  0  0  0  0  0  0  0  0  0  0  0
    0.0000    1.0607    0.0000 C   0  0  0  0  0  0  0  0  0  0  0  0
   -0.3607    0.0000    0.0000 C   0  0  0  0  0  0  0  0  0  0  0  0
   -2.1213   -1.0607    0.0000 C   0  0  0  0  0  0  0  0  0  0  0  0
   -3.5702   -0.6724    0.0000 C   0  0  0  0  0  0  0  0  0  0  0  0
   -4.6309   -1.7331    0.0000 C   0  0  0  0  0  0  0  0  0  0  0  0
   -5.6915   -2.7938    0.0000 C   0  0  0  0  0  0  0  0  0  0  0  0
   -6.7522   -3.8544    0.0000 O   0  0  0  0  0  0  0  0  0  0  0  0
   -1.0607    0.0000    0.0000 C   0  0  0  0  0  0  0  0  0  0  0  0
   -2.1213    1.0607    0.0000 N   0  0  0  0  0  0  0  0  0  0  0  0
   -3.5702    0.6724    0.0000 C   0  0  0  0  0  0  0  0  0  0  0  0
   -3.9584   -0.7765    0.0000 C   0  0  0  0  0  0  0  0  0  0  0  0
   -5.4490   -0.9444    0.0000 C   0  0  0  0  0  0  0  0  0  0  0  0
   -5.2811    0.5462    0.0000 C   0  0  0  0  0  0  0  0  0  0  0  0
   -6.8648   -0.4490    0.0000 C   0  0  0  0  0  0  0  0  0  0  0  0
   -7.1437    1.0249    0.0000 C   0  0  0  0  0  0  0  0  0  0  0  0
  -10.0573   -4.6086    0.0000 H   0  0  0  0  0  0  0  0  0  0  0  0
   -7.3077   -1.1538    0.0000 H   0  0  0  0  0  0  0  0  0  0  0  0
   -5.7366   -5.1302    0.0000 H   0  0  0  0  0  0  0  0  0  0  0  0
   -7.1573   -4.1540    0.0000 H   0  0  0  0  0  0  0  0  0  0  0  0
   -1.5788   -3.5254    0.0000 H   0  0  0  0  0  0  0  0  0  0  0  0
   -2.5703   -4.7435    0.0000 H   0  0  0  0  0  0  0  0  0  0  0  0
   -2.7597   -0.3435    0.0000 H   0  0  0  0  0  0  0  0  0  0  0  0
   -0.7216   -2.7608    0.0000 H   0  0  0  0  0  0  0  0  0  0  0  0
    0.0000    2.5607    0.0000 H   0  0  0  0  0  0  0  0  0  0  0  0
   -2.3465    0.7725    0.0000 H   0  0  0  0  0  0  0  0  0  0  0  0
   -1.7331   -2.5095    0.0000 H   0  0  0  0  0  0  0  0  0  0  0  0
   -4.1322    0.7183    0.0000 H   0  0  0  0  0  0  0  0  0  0  0  0
   -5.9167   -0.9606    0.0000 H   0  0  0  0  0  0  0  0  0  0  0  0
   -3.8584   -3.0189    0.0000 H   0  0  0  0  0  0  0  0  0  0  0  0
   -4.9190   -4.0795    0.0000 H   0  0  0  0  0  0  0  0  0  0  0  0
   -7.0619   -2.1838    0.0000 H   0  0  0  0  0  0  0  0  0  0  0  0
   -6.5435   -5.3398    0.0000 H   0  0  0  0  0  0  0  0  0  0  0  0
   -1.7331    2.5095    0.0000 H   0  0  0  0  0  0  0  0  0  0  0  0
   -4.9885    1.1609    0.0000 H   0  0  0  0  0  0  0  0  0  0  0  0
   -3.7009    2.1667    0.0000 H   0  0  0  0  0  0  0  0  0  0  0  0
   -4.9594   -1.8936    0.0000 H   0  0  0  0  0  0  0  0  0  0  0  0
   -4.9327    2.0051    0.0000 H   0  0  0  0  0  0  0  0  0  0  0  0
   -6.6867    1.0698    0.0000 H   0  0  0  0  0  0  0  0  0  0  0  0
   -3.8293    0.9237    0.0000 H   0  0  0  0  0  0  0  0  0  0  0  0
   -8.1126   -1.2815    0.0000 H   0  0  0  0  0  0  0  0  0  0  0  0
   -8.5595    1.5203    0.0000 H   0  0  0  0  0  0  0  0  0  0  0  0
   -6.1345    2.1346    0.0000 H   0  0  0  0  0  0  0  0  0  0  0  0
  1  2  3  0
  2  3  1  0
  3  4  1  0
  4  5  1  0
  5  6  1  0
  6  7  1  0
  7  8  1  0
  8  9  1  0
  9 10  1  6
 10 11  1  0
 11 12  1  0
 12 13  1  0
 13 14  2  3
 14 15  1  0
 15 16  1  0
 16 17  1  0
 11 18  1  0
 18 19  1  1
 19 20  1  0
 20 21  1  0
 21 22  1  0
 22 23  1  1
 22 24  1  0
 24 25  2  3
 22  3  1  0
 21  7  1  0
 18  8  1  0
 12  9  1  0
 18  9  1  0
  1 26  1  0
  3 27  1  6
  4 28  1  0
  4 29  1  0
  6 30  1  0
  6 31  1  0
  7 32  1  1
  8 33  1  1
 11 34  1  1
 12 35  1  6
 13 36  1  0
 14 37  1  0
 15 38  1  0
 15 39  1  0
 16 40  1  0
 16 41  1  0
 17 42  1  0
 19 43  1  0
 20 44  1  0
 20 45  1  0
 21 46  1  1
 23 47  1  0
 23 48  1  0
 23 49  1  0
 24 50  1  0
 25 51  1  0
 25 52  1  0
M  END
$$$$
