
     RDKit          2D

 58 67  0  0  0  0  0  0  0  0999 V2000
   -4.3827   -4.8661    0.0000 C   0  0  0  0  0  0  0  0  0  0  0  0
   -3.6785   -3.5416    0.0000 C   0  0  0  0  0  0  0  0  0  0  0  0
   -2.9743   -2.2172    0.0000 C   0  0  0  0  0  0  0  0  0  0  0  0
   -1.5477   -2.6807    0.0000 C   0  0  0  0  0  0  0  0  0  0  0  0
   -1.8596   -1.2135    0.0000 C   0  0  0  0  0  0  0  0  0  0  0  0
   -2.7413    0.0000    0.0000 C   0  0  0  0  0  0  0  0  0  0  0  0
   -3.2862    1.6771    0.0000 C   0  0  0  0  0  0  0  0  0  0  0  0
   -2.1715    2.6807    0.0000 N   0  0  0  0  0  0  0  0  0  0  0  0
   -1.0567    3.6844    0.0000 C   0  0  0  0  0  0  0  0  0  0  0  0
   -1.3686    5.1517    0.0000 N   0  0  0  0  0  0  0  0  0  0  0  0
   -0.2539    6.1554    0.0000 C   0  0  0  0  0  0  0  0  0  0  0  0
    0.8608    7.1591    0.0000 C   0  0  0  0  0  0  0  0  0  0  0  0
    1.1727    5.6918    0.0000 C   0  0  0  0  0  0  0  0  0  0  0  0
    2.5993    5.2283    0.0000 C   0  0  0  0  0  0  0  0  0  0  0  0
    1.4846    4.2246    0.0000 C   0  0  0  0  0  0  0  0  0  0  0  0
    0.3698    3.2209    0.0000 N   0  0  0  0  0  0  0  0  0  0  0  0
    0.6817    1.7537    0.0000 C   0  0  0  0  0  0  0  0  0  0  0  0
   -0.4330    0.7500    0.0000 C   0  0  0  0  0  0  0  0  0  0  0  0
    0.8660    0.0000    0.0000 S   0  0  0  0  0  0  0  0  0  0  0  0
   -0.4330   -0.7500    0.0000 C   0  0  0  0  0  0  0  0  0  0  0  0
    0.1771   -2.1203    0.0000 C   0  0  0  0  0  0  0  0  0  0  0  0
    1.2191   -3.1993    0.0000 C   0  0  0  0  0  0  0  0  0  0  0  0
    0.3374   -4.4129    0.0000 C   0  0  0  0  0  0  0  0  0  0  0  0
    1.6325   -1.7574    0.0000 C   0  0  0  0  0  0  0  0  0  0  0  0
    3.1243   -1.9142    0.0000 C   0  0  0  0  0  0  0  0  0  0  0  0
    4.6161   -2.0710    0.0000 C   0  0  0  0  0  0  0  0  0  0  0  0
    6.1079   -2.2278    0.0000 F   0  0  0  0  0  0  0  0  0  0  0  0
   -1.8596    1.2135    0.0000 C   0  0  0  0  0  0  0  0  0  0  0  0
   -5.0869   -6.1905    0.0000 H   0  0  0  0  0  0  0  0  0  0  0  0
   -5.7072   -4.1619    0.0000 H   0  0  0  0  0  0  0  0  0  0  0  0
   -3.0583   -5.5703    0.0000 H   0  0  0  0  0  0  0  0  0  0  0  0
   -2.5727   -4.3160    0.0000 H   0  0  0  0  0  0  0  0  0  0  0  0
   -5.0029   -2.8374    0.0000 H   0  0  0  0  0  0  0  0  0  0  0  0
   -4.1563   -1.2937    0.0000 H   0  0  0  0  0  0  0  0  0  0  0  0
   -0.5851   -2.8854    0.0000 H   0  0  0  0  0  0  0  0  0  0  0  0
   -1.5713   -4.0305    0.0000 H   0  0  0  0  0  0  0  0  0  0  0  0
   -4.2413    0.0000    0.0000 H   0  0  0  0  0  0  0  0  0  0  0  0
   -4.7534    1.3652    0.0000 H   0  0  0  0  0  0  0  0  0  0  0  0
   -2.4833    4.1480    0.0000 H   0  0  0  0  0  0  0  0  0  0  0  0
   -2.7952    5.6152    0.0000 H   0  0  0  0  0  0  0  0  0  0  0  0
   -1.2576    7.2701    0.0000 H   0  0  0  0  0  0  0  0  0  0  0  0
    0.0659    8.4311    0.0000 H   0  0  0  0  0  0  0  0  0  0  0  0
    2.2516    7.7210    0.0000 H   0  0  0  0  0  0  0  0  0  0  0  0
    3.3035    6.5527    0.0000 H   0  0  0  0  0  0  0  0  0  0  0  0
    3.7813    4.3048    0.0000 H   0  0  0  0  0  0  0  0  0  0  0  0
    0.2410    5.0633    0.0000 H   0  0  0  0  0  0  0  0  0  0  0  0
    1.8797    0.8511    0.0000 H   0  0  0  0  0  0  0  0  0  0  0  0
    2.0725    2.3156    0.0000 H   0  0  0  0  0  0  0  0  0  0  0  0
   -0.4245   -2.6433    0.0000 H   0  0  0  0  0  0  0  0  0  0  0  0
    2.4771   -4.0163    0.0000 H   0  0  0  0  0  0  0  0  0  0  0  0
   -0.5443   -5.6264    0.0000 H   0  0  0  0  0  0  0  0  0  0  0  0
    1.5509   -5.2945    0.0000 H   0  0  0  0  0  0  0  0  0  0  0  0
   -0.9745   -3.6857    0.0000 H   0  0  0  0  0  0  0  0  0  0  0  0
    2.0712   -0.3230    0.0000 H   0  0  0  0  0  0  0  0  0  0  0  0
    3.1505   -3.4140    0.0000 H   0  0  0  0  0  0  0  0  0  0  0  0
    3.2811   -0.4224    0.0000 H   0  0  0  0  0  0  0  0  0  0  0  0
    4.7729   -0.5792    0.0000 H   0  0  0  0  0  0  0  0  0  0  0  0
    4.4593   -3.5628    0.0000 H   0  0  0  0  0  0  0  0  0  0  0  0
  1  2  1  0
  2  3  1  0
  3  4  1  0
  5  4  1  6
  5  6  1  0
  6  7  1  0
  7  8  1  0
  8  9  1  0
  9 10  1  0
 10 11  1  0
 11 12  1  0
 13 12  1  1
 13 14  1  0
 14 15  1  0
 15 16  1  0
 16 17  1  0
 17 18  1  0
 18 19  1  6
 20 19  1  6
 20 21  1  0
 21 22  1  0
 22 23  1  0
 22 24  1  0
 24 25  1  0
 25 26  1  0
 26 27  1  0
 18 28  1  0
  5  3  1  0
 28  6  1  0
 20  5  1  0
 24 21  1  0
 28  7  1  0
 28  8  1  6
 16  9  1  0
 20 18  1  0
 13 11  1  0
 15 13  1  0
  1 29  1  0
  1 30  1  0
  1 31  1  0
  2 32  1  0
  2 33  1  0
  3 34  1  1
  4 35  1  0
  4 36  1  0
  6 37  1  6
  7 38  1  6
  9 39  1  1
 10 40  1  0
 11 41  1  6
 12 42  1  0
 12 43  1  0
 14 44  1  0
 14 45  1  0
 15 46  1  1
 17 47  1  0
 17 48  1  0
 21 49  1  6
 22 50  1  1
 23 51  1  0
 23 52  1  0
 23 53  1  0
 24 54  1  6
 25 55  1  0
 25 56  1  0
 26 57  1  0
 26 58  1  0
M  END
$$$$
