
     RDKit          2D

 26 28  0  0  0  0  0  0  0  0999 V2000
   -0.6394    3.9542    0.0000 C   0  0  0  0  0  0  0  0  0  0  0  0
   -1.2495    2.5838    0.0000 C   0  0  0  0  0  0  0  0  0  0  0  0
   -1.8596    1.2135    0.0000 C   0  0  0  0  0  0  0  0  0  0  0  0
   -0.4330    0.7500    0.0000 C   0  0  0  0  0  0  0  0  0  0  0  0
    0.8660    0.0000    0.0000 C   0  0  0  0  0  0  0  0  0  0  0  0
   -0.4330   -0.7500    0.0000 C   0  0  0  0  0  0  0  0  0  0  0  0
   -1.8596   -1.2135    0.0000 C   0  0  0  0  0  0  0  0  0  0  0  0
   -2.7413    0.0000    0.0000 C   0  0  0  0  0  0  0  0  0  0  0  0
   -4.0403   -0.7500    0.0000 C   0  0  0  0  0  0  0  0  0  0  0  0
   -4.0403    0.7500    0.0000 C   0  0  0  0  0  0  0  0  0  0  0  0
   -0.0293    5.3245    0.0000 H   0  0  0  0  0  0  0  0  0  0  0  0
   -2.0097    4.5643    0.0000 H   0  0  0  0  0  0  0  0  0  0  0  0
    0.7309    3.3441    0.0000 H   0  0  0  0  0  0  0  0  0  0  0  0
   -0.4025    2.3249    0.0000 H   0  0  0  0  0  0  0  0  0  0  0  0
   -2.6198    3.1939    0.0000 H   0  0  0  0  0  0  0  0  0  0  0  0
   -2.8299    1.9448    0.0000 H   0  0  0  0  0  0  0  0  0  0  0  0
    0.0232    1.5092    0.0000 H   0  0  0  0  0  0  0  0  0  0  0  0
    1.8302    1.1491    0.0000 H   0  0  0  0  0  0  0  0  0  0  0  0
    1.8302   -1.1491    0.0000 H   0  0  0  0  0  0  0  0  0  0  0  0
    0.1771   -2.1203    0.0000 H   0  0  0  0  0  0  0  0  0  0  0  0
   -2.8299   -1.9448    0.0000 H   0  0  0  0  0  0  0  0  0  0  0  0
   -1.2495   -2.5838    0.0000 H   0  0  0  0  0  0  0  0  0  0  0  0
   -3.7670   -1.9339    0.0000 H   0  0  0  0  0  0  0  0  0  0  0  0
   -5.5175   -1.0105    0.0000 H   0  0  0  0  0  0  0  0  0  0  0  0
   -5.5175    1.0105    0.0000 H   0  0  0  0  0  0  0  0  0  0  0  0
   -3.7670    1.9339    0.0000 H   0  0  0  0  0  0  0  0  0  0  0  0
  1  2  1  0
  2  3  1  0
  3  4  1  0
  4  5  1  0
  5  6  1  0
  6  7  1  0
  7  8  1  0
  8  9  1  0
  9 10  1  0
  8  3  1  0
  6  4  1  0
 10  8  1  0
  1 11  1  0
  1 12  1  0
  1 13  1  0
  2 14  1  0
  2 15  1  0
  3 16  1  0
  4 17  1  0
  5 18  1  0
  5 19  1  0
  6 20  1  0
  7 21  1  0
  7 22  1  0
  9 23  1  0
  9 24  1  0
 10 25  1  0
 10 26  1  0
M  END
$$$$
