
     RDKit          2D

 43 47  0  0  0  0  0  0  0  0999 V2000
   -2.4233    3.9200    0.0000 C   0  0  0  0  0  0  0  0  0  0  0  0
   -1.9102    2.5105    0.0000 C   0  0  0  0  0  0  0  0  0  0  0  0
   -0.4330    2.2500    0.0000 C   0  0  0  0  0  0  0  0  0  0  0  0
   -0.4330    0.7500    0.0000 C   0  0  0  0  0  0  0  0  0  0  0  0
    0.8660    0.0000    0.0000 N   0  0  0  0  0  0  0  0  0  0  0  0
   -0.4330   -0.7500    0.0000 C   0  0  0  0  0  0  0  0  0  0  0  0
   -1.7321    0.0000    0.0000 C   0  0  0  0  0  0  0  0  0  0  0  0
   -2.6962    1.1491    0.0000 C   0  0  0  0  0  0  0  0  0  0  0  0
   -3.9953    1.8991    0.0000 C   0  0  0  0  0  0  0  0  0  0  0  0
   -5.2943    1.1491    0.0000 C   0  0  0  0  0  0  0  0  0  0  0  0
   -3.9953    0.3991    0.0000 C   0  0  0  0  0  0  0  0  0  0  0  0
    0.0800    3.6595    0.0000 C   0  0  0  0  0  0  0  0  0  0  0  0
    1.0442    2.5105    0.0000 C   0  0  0  0  0  0  0  0  0  0  0  0
    2.3432    3.2605    0.0000 C   0  0  0  0  0  0  0  0  0  0  0  0
    3.6423    4.0105    0.0000 C   0  0  0  0  0  0  0  0  0  0  0  0
    4.9413    4.7605    0.0000 C   0  0  0  0  0  0  0  0  0  0  0  0
    6.2404    5.5105    0.0000 C   0  0  0  0  0  0  0  0  0  0  0  0
    4.1913    6.0595    0.0000 C   0  0  0  0  0  0  0  0  0  0  0  0
   -3.8577    4.3586    0.0000 H   0  0  0  0  0  0  0  0  0  0  0  0
   -1.6063    5.1780    0.0000 H   0  0  0  0  0  0  0  0  0  0  0  0
   -2.6268    1.9899    0.0000 H   0  0  0  0  0  0  0  0  0  0  0  0
    2.3660    0.0000    0.0000 H   0  0  0  0  0  0  0  0  0  0  0  0
   -0.4330   -2.2500    0.0000 H   0  0  0  0  0  0  0  0  0  0  0  0
   -2.6962   -1.1491    0.0000 H   0  0  0  0  0  0  0  0  0  0  0  0
   -2.3468    1.8656    0.0000 H   0  0  0  0  0  0  0  0  0  0  0  0
   -4.1781    3.3879    0.0000 H   0  0  0  0  0  0  0  0  0  0  0  0
   -6.2585    2.2981    0.0000 H   0  0  0  0  0  0  0  0  0  0  0  0
   -6.2585   -0.0000    0.0000 H   0  0  0  0  0  0  0  0  0  0  0  0
   -3.9953   -1.1009    0.0000 H   0  0  0  0  0  0  0  0  0  0  0  0
   -1.1179    4.5623    0.0000 H   0  0  0  0  0  0  0  0  0  0  0  0
    0.8969    4.9176    0.0000 H   0  0  0  0  0  0  0  0  0  0  0  0
    1.5572    1.1009    0.0000 H   0  0  0  0  0  0  0  0  0  0  0  0
    3.0932    1.9614    0.0000 H   0  0  0  0  0  0  0  0  0  0  0  0
    1.7572    4.6412    0.0000 H   0  0  0  0  0  0  0  0  0  0  0  0
    4.3923    2.7114    0.0000 H   0  0  0  0  0  0  0  0  0  0  0  0
    2.7395    5.2084    0.0000 H   0  0  0  0  0  0  0  0  0  0  0  0
    5.6913    3.4614    0.0000 H   0  0  0  0  0  0  0  0  0  0  0  0
    7.5394    6.2605    0.0000 H   0  0  0  0  0  0  0  0  0  0  0  0
    6.9904    4.2114    0.0000 H   0  0  0  0  0  0  0  0  0  0  0  0
    5.6543    6.8912    0.0000 H   0  0  0  0  0  0  0  0  0  0  0  0
    3.4413    7.3585    0.0000 H   0  0  0  0  0  0  0  0  0  0  0  0
    5.3892    6.9623    0.0000 H   0  0  0  0  0  0  0  0  0  0  0  0
    2.8105    5.4735    0.0000 H   0  0  0  0  0  0  0  0  0  0  0  0
  1  2  2  3
  2  3  1  0
  3  4  1  0
  4  5  1  0
  5  6  1  0
  6  7  1  0
  7  8  1  0
  8  9  1  0
  9 10  1  0
 10 11  1  0
  3 12  1  0
 12 13  1  0
 13 14  1  0
 14 15  1  0
 15 16  1  0
 16 17  1  0
 16 18  1  0
 13  3  1  0
  6  4  1  0
 11  8  1  0
  7  4  1  0
 11  9  1  0
  1 19  1  0
  1 20  1  0
  2 21  1  0
  5 22  1  0
  6 23  1  0
  7 24  1  0
  8 25  1  0
  9 26  1  0
 10 27  1  0
 10 28  1  0
 11 29  1  0
 12 30  1  0
 12 31  1  0
 13 32  1  0
 14 33  1  0
 14 34  1  0
 15 35  1  0
 15 36  1  0
 16 37  1  0
 17 38  1  0
 17 39  1  0
 17 40  1  0
 18 41  1  0
 18 42  1  0
 18 43  1  0
M  END
$$$$
