
     RDKit          2D

 47 48  0  0  0  0  0  0  0  0999 V2000
   -2.5112    5.4752    0.0000 C   0  0  0  0  0  0  0  0  0  0  0  0
   -1.1254    6.0492    0.0000 C   0  0  0  0  0  0  0  0  0  0  0  0
    0.2604    6.6232    0.0000 C   0  0  0  0  0  0  0  0  0  0  0  0
   -0.5514    4.6634    0.0000 O   0  0  0  0  0  0  0  0  0  0  0  0
   -1.4645    3.4734    0.0000 C   0  0  0  0  0  0  0  0  0  0  0  0
   -0.2745    2.5602    0.0000 C   0  0  0  0  0  0  0  0  0  0  0  0
   -2.6546    4.3865    0.0000 C   0  0  0  0  0  0  0  0  0  0  0  0
   -3.8446    5.2997    0.0000 C   0  0  0  0  0  0  0  0  0  0  0  0
   -3.5677    3.1965    0.0000 O   0  0  0  0  0  0  0  0  0  0  0  0
   -2.9937    1.8107    0.0000 C   0  0  0  0  0  0  0  0  0  0  0  0
   -1.4937    1.8107    0.0000 N   0  0  0  0  0  0  0  0  0  0  0  0
   -0.4330    0.7500    0.0000 C   0  0  0  0  0  0  0  0  0  0  0  0
    0.8660    0.0000    0.0000 C   0  0  0  0  0  0  0  0  0  0  0  0
    1.8302    1.1491    0.0000 O   0  0  0  0  0  0  0  0  0  0  0  0
   -0.4330   -0.7500    0.0000 C   0  0  0  0  0  0  0  0  0  0  0  0
   -1.4937   -1.8107    0.0000 S   0  0  0  0  0  4  0  0  0  0  0  0
   -0.1946   -2.5607    0.0000 C   0  0  0  0  0  0  0  0  0  0  0  0
   -2.9937   -1.8107    0.0000 O   0  0  0  0  0  0  0  0  0  0  0  0
   -4.0543   -0.7500    0.0000 N   0  0  0  0  0  0  0  0  0  0  0  0
   -5.4402   -1.3240    0.0000 C   0  0  0  0  0  0  0  0  0  0  0  0
   -4.0543    0.7500    0.0000 O   0  0  0  0  0  0  0  0  0  0  0  0
   -3.2996    5.3574    0.0000 H   0  0  0  0  0  0  0  0  0  0  0  0
   -2.9120    6.9206    0.0000 H   0  0  0  0  0  0  0  0  0  0  0  0
   -2.6552    3.9821    0.0000 H   0  0  0  0  0  0  0  0  0  0  0  0
   -1.6994    7.4350    0.0000 H   0  0  0  0  0  0  0  0  0  0  0  0
    1.6462    7.1973    0.0000 H   0  0  0  0  0  0  0  0  0  0  0  0
   -0.3136    8.0091    0.0000 H   0  0  0  0  0  0  0  0  0  0  0  0
    0.8344    5.2374    0.0000 H   0  0  0  0  0  0  0  0  0  0  0  0
   -2.0626    2.0977    0.0000 H   0  0  0  0  0  0  0  0  0  0  0  0
    1.0180    1.7990    0.0000 H   0  0  0  0  0  0  0  0  0  0  0  0
   -0.8725    1.1846    0.0000 H   0  0  0  0  0  0  0  0  0  0  0  0
    0.6386    3.7503    0.0000 H   0  0  0  0  0  0  0  0  0  0  0  0
   -2.4071    5.8660    0.0000 H   0  0  0  0  0  0  0  0  0  0  0  0
   -5.0346    6.2128    0.0000 H   0  0  0  0  0  0  0  0  0  0  0  0
   -3.0833    6.5921    0.0000 H   0  0  0  0  0  0  0  0  0  0  0  0
   -4.7577    4.1096    0.0000 H   0  0  0  0  0  0  0  0  0  0  0  0
    0.6184    1.8198    0.0000 H   0  0  0  0  0  0  0  0  0  0  0  0
    1.8302   -1.1491    0.0000 H   0  0  0  0  0  0  0  0  0  0  0  0
    3.3074    0.8886    0.0000 H   0  0  0  0  0  0  0  0  0  0  0  0
    0.6184   -1.8198    0.0000 H   0  0  0  0  0  0  0  0  0  0  0  0
   -1.8819   -3.2595    0.0000 H   0  0  0  0  0  0  0  0  0  0  0  0
    1.1044   -3.3107    0.0000 H   0  0  0  0  0  0  0  0  0  0  0  0
   -0.9446   -3.8597    0.0000 H   0  0  0  0  0  0  0  0  0  0  0  0
    0.7081   -1.3627    0.0000 H   0  0  0  0  0  0  0  0  0  0  0  0
   -6.8260   -1.8981    0.0000 H   0  0  0  0  0  0  0  0  0  0  0  0
   -6.0142    0.0618    0.0000 H   0  0  0  0  0  0  0  0  0  0  0  0
   -4.8661   -2.7098    0.0000 H   0  0  0  0  0  0  0  0  0  0  0  0
  1  2  1  0
  2  3  1  0
  2  4  1  0
  4  5  1  0
  5  6  1  0
  5  7  1  0
  7  8  1  0
  7  9  1  0
  9 10  1  0
 10 11  2  0
 11 12  1  0
 12 13  1  0
 13 14  1  0
 13 15  1  0
 15 16  1  0
 16 17  1  0
 16 18  1  0
 18 19  1  0
 19 20  1  0
 19 21  1  0
 21 10  1  0
 15 12  1  0
  1 22  1  0
  1 23  1  0
  1 24  1  0
  2 25  1  0
  3 26  1  0
  3 27  1  0
  3 28  1  0
  5 29  1  0
  6 30  1  0
  6 31  1  0
  6 32  1  0
  7 33  1  0
  8 34  1  0
  8 35  1  0
  8 36  1  0
 12 37  1  0
 13 38  1  0
 14 39  1  0
 15 40  1  0
 16 41  1  0
 17 42  1  0
 17 43  1  0
 17 44  1  0
 20 45  1  0
 20 46  1  0
 20 47  1  0
M  END
$$$$
