
     RDKit          2D

 44 48  0  0  0  0  0  0  0  0999 V2000
    3.3074    0.8886    0.0000 C   0  0  0  0  0  0  0  0  0  0  0  0
    1.8302    1.1491    0.0000 N   0  0  0  0  0  0  0  0  0  0  0  0
    0.8660    0.0000    0.0000 C   0  0  0  0  0  0  0  0  0  0  0  0
   -0.4330    0.7500    0.0000 C   0  0  0  0  0  0  0  0  0  0  0  0
   -1.7321    0.0000    0.0000 C   0  0  0  0  0  0  0  0  0  0  0  0
   -2.8468   -1.0037    0.0000 C   0  0  0  0  0  0  0  0  0  0  0  0
   -3.7284    0.2098    0.0000 O   0  0  0  0  0  0  0  0  0  0  0  0
   -5.2202    0.0530    0.0000 N   0  0  0  0  0  0  0  0  0  0  0  0
   -6.1019    1.2666    0.0000 C   0  0  0  0  0  0  0  0  0  0  0  0
   -5.0599    2.3456    0.0000 C   0  0  0  0  0  0  0  0  0  0  0  0
   -7.3455    2.1054    0.0000 N   0  0  0  0  0  0  0  0  0  0  0  0
   -7.4501    0.6090    0.0000 C   0  0  0  0  0  0  0  0  0  0  0  0
   -8.9419    0.4522    0.0000 C   0  0  0  0  0  0  0  0  0  0  0  0
  -10.4337    0.2954    0.0000 B   0  0  0  0  0  0  0  0  0  0  0  0
  -11.6472   -0.5863    0.0000 C   0  0  0  0  0  0  0  0  0  0  0  0
  -11.8040    0.9055    0.0000 C   0  0  0  0  0  0  0  0  0  0  0  0
  -13.3003    1.0102    0.0000 C   0  0  0  0  0  0  0  0  0  0  0  0
   -2.2367   -2.3740    0.0000 C   0  0  0  0  0  0  0  0  0  0  0  0
   -0.7449   -2.2172    0.0000 C   0  0  0  0  0  0  0  0  0  0  0  0
   -0.4330   -0.7500    0.0000 C   0  0  0  0  0  0  0  0  0  0  0  0
    4.2716    2.0377    0.0000 H   0  0  0  0  0  0  0  0  0  0  0  0
    3.8204   -0.5209    0.0000 H   0  0  0  0  0  0  0  0  0  0  0  0
    1.8302   -1.1491    0.0000 H   0  0  0  0  0  0  0  0  0  0  0  0
   -0.4330    2.2500    0.0000 H   0  0  0  0  0  0  0  0  0  0  0  0
   -2.6137    1.2135    0.0000 H   0  0  0  0  0  0  0  0  0  0  0  0
   -4.1458   -1.7537    0.0000 H   0  0  0  0  0  0  0  0  0  0  0  0
   -5.8303   -1.3173    0.0000 H   0  0  0  0  0  0  0  0  0  0  0  0
   -4.0179    3.4246    0.0000 H   0  0  0  0  0  0  0  0  0  0  0  0
   -6.1389    3.3876    0.0000 H   0  0  0  0  0  0  0  0  0  0  0  0
   -3.9809    1.3036    0.0000 H   0  0  0  0  0  0  0  0  0  0  0  0
   -8.0030    3.4535    0.0000 H   0  0  0  0  0  0  0  0  0  0  0  0
   -7.0366   -0.8329    0.0000 H   0  0  0  0  0  0  0  0  0  0  0  0
   -9.0987    1.9440    0.0000 H   0  0  0  0  0  0  0  0  0  0  0  0
   -8.7851   -1.0396    0.0000 H   0  0  0  0  0  0  0  0  0  0  0  0
  -10.9896   -1.9344    0.0000 H   0  0  0  0  0  0  0  0  0  0  0  0
  -12.8899   -1.1138    0.0000 H   0  0  0  0  0  0  0  0  0  0  0  0
  -11.4411    2.3610    0.0000 H   0  0  0  0  0  0  0  0  0  0  0  0
  -14.7967    1.1148    0.0000 H   0  0  0  0  0  0  0  0  0  0  0  0
  -13.1957    2.5065    0.0000 H   0  0  0  0  0  0  0  0  0  0  0  0
  -13.5580   -0.3150    0.0000 H   0  0  0  0  0  0  0  0  0  0  0  0
   -3.6632   -2.8375    0.0000 H   0  0  0  0  0  0  0  0  0  0  0  0
   -1.9248   -3.8412    0.0000 H   0  0  0  0  0  0  0  0  0  0  0  0
   -0.7449   -3.7172    0.0000 H   0  0  0  0  0  0  0  0  0  0  0  0
    0.7469   -2.3740    0.0000 H   0  0  0  0  0  0  0  0  0  0  0  0
  1  2  2  3
  2  3  1  0
  3  4  1  0
  4  5  1  0
  5  6  1  0
  6  7  1  0
  7  8  1  0
  9  8  1  6
  9 10  1  0
  9 11  1  0
 11 12  1  0
 12 13  1  0
 13 14  1  0
 14 15  1  0
 15 16  1  0
 16 17  1  0
  6 18  1  0
 18 19  1  0
 20 19  1  6
 20  3  1  0
 20  4  1  0
 20  5  1  0
 12  9  1  0
 16 14  1  0
  1 21  1  0
  1 22  1  0
  3 23  1  1
  4 24  1  1
  5 25  1  6
  6 26  1  1
  8 27  1  0
 10 28  1  0
 10 29  1  0
 10 30  1  0
 11 31  1  0
 12 32  1  6
 13 33  1  0
 13 34  1  0
 15 35  1  0
 15 36  1  0
 16 37  1  6
 17 38  1  0
 17 39  1  0
 17 40  1  0
 18 41  1  0
 18 42  1  0
 19 43  1  0
 19 44  1  0
M  END
$$$$
