
     RDKit          2D

 52 52  0  0  0  0  0  0  0  0999 V2000
   -4.5161    7.1910    0.0000 C   0  0  0  0  0  0  0  0  0  0  0  0
   -4.0031    5.7814    0.0000 C   0  0  0  0  0  0  0  0  0  0  0  0
   -2.5258    5.5209    0.0000 C   0  0  0  0  0  0  0  0  0  0  0  0
   -1.0486    5.2605    0.0000 C   0  0  0  0  0  0  0  0  0  0  0  0
    0.4286    5.0000    0.0000 C   0  0  0  0  0  0  0  0  0  0  0  0
    1.9058    4.7395    0.0000 C   0  0  0  0  0  0  0  0  0  0  0  0
    3.3830    4.4791    0.0000 C   0  0  0  0  0  0  0  0  0  0  0  0
    4.8602    4.2186    0.0000 C   0  0  0  0  0  0  0  0  0  0  0  0
    5.3732    2.8090    0.0000 C   0  0  0  0  0  0  0  0  0  0  0  0
    1.6453    3.2623    0.0000 O   0  0  0  0  0  0  0  0  0  0  0  0
    2.7944    2.2981    0.0000 C   0  0  0  0  0  0  0  0  0  0  0  0
    3.7586    3.4472    0.0000 C   0  0  0  0  0  0  0  0  0  0  0  0
    4.7228    4.5963    0.0000 C   0  0  0  0  0  0  0  0  0  0  0  0
    5.6869    5.7453    0.0000 O   0  0  0  0  0  0  0  0  0  0  0  0
    7.1641    5.4849    0.0000 C   0  0  0  0  0  0  0  0  0  0  0  0
    1.8302    1.1491    0.0000 C   0  0  0  0  0  0  0  0  0  0  0  0
    0.8660    0.0000    0.0000 C   0  0  0  0  0  0  0  0  0  0  0  0
   -0.4330    0.7500    0.0000 C   0  0  0  0  0  0  0  0  0  0  0  0
   -0.4330   -0.7500    0.0000 C   0  0  0  0  0  0  0  0  0  0  0  0
    0.0800   -2.1595    0.0000 C   0  0  0  0  0  0  0  0  0  0  0  0
   -5.9933    7.4514    0.0000 H   0  0  0  0  0  0  0  0  0  0  0  0
   -3.5519    8.3400    0.0000 H   0  0  0  0  0  0  0  0  0  0  0  0
   -4.9672    4.6323    0.0000 H   0  0  0  0  0  0  0  0  0  0  0  0
   -2.2654    6.9982    0.0000 H   0  0  0  0  0  0  0  0  0  0  0  0
   -2.7863    4.0437    0.0000 H   0  0  0  0  0  0  0  0  0  0  0  0
   -0.7882    6.7377    0.0000 H   0  0  0  0  0  0  0  0  0  0  0  0
   -1.3091    3.7833    0.0000 H   0  0  0  0  0  0  0  0  0  0  0  0
    0.1681    3.5228    0.0000 H   0  0  0  0  0  0  0  0  0  0  0  0
    0.6891    6.4772    0.0000 H   0  0  0  0  0  0  0  0  0  0  0  0
    2.1663    6.2167    0.0000 H   0  0  0  0  0  0  0  0  0  0  0  0
    3.4615    5.9770    0.0000 H   0  0  0  0  0  0  0  0  0  0  0  0
    3.8467    3.0525    0.0000 H   0  0  0  0  0  0  0  0  0  0  0  0
    6.0738    5.1002    0.0000 H   0  0  0  0  0  0  0  0  0  0  0  0
    6.8505    2.5486    0.0000 H   0  0  0  0  0  0  0  0  0  0  0  0
    4.5563    1.5510    0.0000 H   0  0  0  0  0  0  0  0  0  0  0  0
    3.8174    1.2011    0.0000 H   0  0  0  0  0  0  0  0  0  0  0  0
    4.6402    2.2336    0.0000 H   0  0  0  0  0  0  0  0  0  0  0  0
    3.1968    4.8380    0.0000 H   0  0  0  0  0  0  0  0  0  0  0  0
    3.6998    5.6933    0.0000 H   0  0  0  0  0  0  0  0  0  0  0  0
    5.8718    3.6321    0.0000 H   0  0  0  0  0  0  0  0  0  0  0  0
    8.6414    5.2244    0.0000 H   0  0  0  0  0  0  0  0  0  0  0  0
    7.4246    6.9621    0.0000 H   0  0  0  0  0  0  0  0  0  0  0  0
    6.9037    4.0076    0.0000 H   0  0  0  0  0  0  0  0  0  0  0  0
    0.8072    2.2461    0.0000 H   0  0  0  0  0  0  0  0  0  0  0  0
    2.9793    0.1849    0.0000 H   0  0  0  0  0  0  0  0  0  0  0  0
    1.9631   -1.0230    0.0000 H   0  0  0  0  0  0  0  0  0  0  0  0
   -1.9102    1.0105    0.0000 H   0  0  0  0  0  0  0  0  0  0  0  0
   -0.0956    2.2116    0.0000 H   0  0  0  0  0  0  0  0  0  0  0  0
   -1.9102   -1.0105    0.0000 H   0  0  0  0  0  0  0  0  0  0  0  0
    0.5930   -3.5691    0.0000 H   0  0  0  0  0  0  0  0  0  0  0  0
   -1.3295   -2.6726    0.0000 H   0  0  0  0  0  0  0  0  0  0  0  0
    1.5416   -1.8222    0.0000 H   0  0  0  0  0  0  0  0  0  0  0  0
  1  2  2  3
  2  3  1  0
  3  4  1  0
  4  5  1  0
  5  6  1  0
  6  7  1  0
  7  8  1  0
  8  9  2  3
  6 10  1  0
 10 11  1  0
 11 12  1  0
 12 13  1  0
 13 14  1  0
 14 15  1  0
 11 16  1  0
 16 17  1  0
 17 18  1  0
 18 19  1  0
 19 20  1  0
 19 17  1  0
  1 21  1  0
  1 22  1  0
  2 23  1  0
  3 24  1  0
  3 25  1  0
  4 26  1  0
  4 27  1  0
  5 28  1  0
  5 29  1  0
  6 30  1  6
  7 31  1  0
  7 32  1  0
  8 33  1  0
  9 34  1  0
  9 35  1  0
 11 36  1  1
 12 37  1  0
 12 38  1  0
 13 39  1  0
 13 40  1  0
 15 41  1  0
 15 42  1  0
 15 43  1  0
 16 44  1  0
 16 45  1  0
 17 46  1  6
 18 47  1  0
 18 48  1  0
 19 49  1  1
 20 50  1  0
 20 51  1  0
 20 52  1  0
M  END
$$$$
