
     RDKit          2D

 24 29  0  0  0  0  0  0  0  0999 V2000
   -3.3874   -4.2709    0.0000 O   0  0  0  0  0  0  0  0  0  0  0  0
   -4.6865   -3.5209    0.0000 C   0  0  0  0  0  0  0  0  0  0  0  0
   -4.6865   -2.0209    0.0000 C   0  0  0  0  0  0  0  0  0  0  0  0
   -3.2093   -1.7605    0.0000 C   0  0  0  0  0  0  0  0  0  0  0  0
   -1.7321   -1.5000    0.0000 C   0  0  0  0  0  0  0  0  0  0  0  0
   -1.7321    0.0000    0.0000 C   0  0  0  0  0  0  0  0  0  0  0  0
   -0.4330    0.7500    0.0000 C   0  0  0  0  0  0  0  0  0  0  0  0
    0.8660    0.0000    0.0000 C   0  0  0  0  0  0  0  0  0  0  0  0
   -0.4330   -0.7500    0.0000 C   0  0  0  0  0  0  0  0  0  0  0  0
   -5.9855   -2.7709    0.0000 C   0  0  0  0  0  0  0  0  0  0  0  0
   -7.2846   -3.5209    0.0000 C   0  0  0  0  0  0  0  0  0  0  0  0
   -5.9855   -4.2709    0.0000 C   0  0  0  0  0  0  0  0  0  0  0  0
   -3.3874   -5.7709    0.0000 H   0  0  0  0  0  0  0  0  0  0  0  0
   -5.1995   -0.6114    0.0000 H   0  0  0  0  0  0  0  0  0  0  0  0
   -3.4697   -0.2833    0.0000 H   0  0  0  0  0  0  0  0  0  0  0  0
   -2.9488   -3.2377    0.0000 H   0  0  0  0  0  0  0  0  0  0  0  0
   -1.2190   -2.9095    0.0000 H   0  0  0  0  0  0  0  0  0  0  0  0
   -3.0311    0.7500    0.0000 H   0  0  0  0  0  0  0  0  0  0  0  0
   -0.4330    2.2500    0.0000 H   0  0  0  0  0  0  0  0  0  0  0  0
    1.8302    1.1491    0.0000 H   0  0  0  0  0  0  0  0  0  0  0  0
    1.8302   -1.1491    0.0000 H   0  0  0  0  0  0  0  0  0  0  0  0
   -8.2487   -2.3719    0.0000 H   0  0  0  0  0  0  0  0  0  0  0  0
   -8.2487   -4.6700    0.0000 H   0  0  0  0  0  0  0  0  0  0  0  0
   -5.9855   -5.7709    0.0000 H   0  0  0  0  0  0  0  0  0  0  0  0
  1  2  1  0
  2  3  1  0
  3  4  1  0
  4  5  1  0
  5  6  1  0
  6  7  1  0
  7  8  1  0
  8  9  1  0
  3 10  1  0
 10 11  1  0
 11 12  1  0
 10  2  1  0
 12  2  1  0
  9  5  1  0
 12 10  1  0
  9  6  1  0
  9  7  1  0
  1 13  1  0
  3 14  1  0
  4 15  1  0
  4 16  1  0
  5 17  1  0
  6 18  1  0
  7 19  1  0
  8 20  1  0
  8 21  1  0
 11 22  1  0
 11 23  1  0
 12 24  1  0
M  END
$$$$
