
     RDKit          2D

 44 46  0  0  0  0  0  0  0  0999 V2000
   12.9149   -0.9098    0.0000 C   0  0  0  0  0  0  0  0  0  0  0  0
   11.5054   -0.3967    0.0000 C   0  0  0  0  0  0  0  0  0  0  0  0
   10.3563   -1.3609    0.0000 C   0  0  0  0  0  0  0  0  0  0  0  0
    9.2072   -0.3967    0.0000 C   0  0  0  0  0  0  0  0  0  0  0  0
    8.9468   -1.8739    0.0000 C   0  0  0  0  0  0  0  0  0  0  0  0
    8.6863   -3.3512    0.0000 C   0  0  0  0  0  0  0  0  0  0  0  0
    7.5372   -2.3870    0.0000 C   0  0  0  0  0  0  0  0  0  0  0  0
    6.3882   -3.3512    0.0000 C   0  0  0  0  0  0  0  0  0  0  0  0
    6.6486   -4.8284    0.0000 C   0  0  0  0  0  0  0  0  0  0  0  0
    4.9786   -2.8381    0.0000 C   0  0  0  0  0  0  0  0  0  0  0  0
    3.5691   -2.3251    0.0000 C   0  0  0  0  0  0  0  0  0  0  0  0
    2.1595   -1.8121    0.0000 C   0  0  0  0  0  0  0  0  0  0  0  0
    0.7500   -1.2990    0.0000 C   0  0  0  0  0  0  0  0  0  0  0  0
    1.5000    0.0000    0.0000 C   0  0  0  0  0  0  0  0  0  0  0  0
    0.7500    1.2990    0.0000 C   0  0  0  0  0  0  0  0  0  0  0  0
   -0.7500    1.2990    0.0000 C   0  0  0  0  0  0  0  0  0  0  0  0
   -1.5000    0.0000    0.0000 C   0  0  0  0  0  0  0  0  0  0  0  0
   -0.7500   -1.2990    0.0000 C   0  0  0  0  0  0  0  0  0  0  0  0
   14.0640    0.0544    0.0000 H   0  0  0  0  0  0  0  0  0  0  0  0
   13.1754   -2.3870    0.0000 H   0  0  0  0  0  0  0  0  0  0  0  0
   11.2449    1.0805    0.0000 H   0  0  0  0  0  0  0  0  0  0  0  0
   11.1063   -2.6600    0.0000 H   0  0  0  0  0  0  0  0  0  0  0  0
    7.7977    0.1163    0.0000 H   0  0  0  0  0  0  0  0  0  0  0  0
    9.9572    0.9023    0.0000 H   0  0  0  0  0  0  0  0  0  0  0  0
   10.0958   -3.8642    0.0000 H   0  0  0  0  0  0  0  0  0  0  0  0
    8.2116   -4.4696    0.0000 H   0  0  0  0  0  0  0  0  0  0  0  0
    6.7872   -1.0879    0.0000 H   0  0  0  0  0  0  0  0  0  0  0  0
    5.4996   -5.7926    0.0000 H   0  0  0  0  0  0  0  0  0  0  0  0
    7.7312   -5.3800    0.0000 H   0  0  0  0  0  0  0  0  0  0  0  0
    4.4656   -4.2477    0.0000 H   0  0  0  0  0  0  0  0  0  0  0  0
    5.4916   -1.4286    0.0000 H   0  0  0  0  0  0  0  0  0  0  0  0
    4.0821   -0.9156    0.0000 H   0  0  0  0  0  0  0  0  0  0  0  0
    3.0560   -3.7346    0.0000 H   0  0  0  0  0  0  0  0  0  0  0  0
    2.5215   -1.1018    0.0000 H   0  0  0  0  0  0  0  0  0  0  0  0
    1.6465   -3.2216    0.0000 H   0  0  0  0  0  0  0  0  0  0  0  0
    0.4895   -2.7762    0.0000 H   0  0  0  0  0  0  0  0  0  0  0  0
    2.6491    0.9642    0.0000 H   0  0  0  0  0  0  0  0  0  0  0  0
    2.1686   -0.4341    0.0000 H   0  0  0  0  0  0  0  0  0  0  0  0
    1.5000    2.5981    0.0000 H   0  0  0  0  0  0  0  0  0  0  0  0
   -1.5000    2.5981    0.0000 H   0  0  0  0  0  0  0  0  0  0  0  0
   -2.6491   -0.9642    0.0000 H   0  0  0  0  0  0  0  0  0  0  0  0
   -2.6491    0.9642    0.0000 H   0  0  0  0  0  0  0  0  0  0  0  0
   -0.4895   -2.7762    0.0000 H   0  0  0  0  0  0  0  0  0  0  0  0
   -2.1595   -1.8121    0.0000 H   0  0  0  0  0  0  0  0  0  0  0  0
  1  2  2  3
  2  3  1  0
  3  4  1  0
  4  5  1  0
  5  6  1  0
  6  7  1  0
  7  8  1  0
  8  9  2  3
  8 10  1  0
 10 11  1  0
 11 12  1  0
 12 13  1  0
 13 14  1  0
 14 15  1  0
 15 16  2  0
 16 17  1  0
 17 18  1  0
  5  3  1  0
 18 13  1  0
  7  5  1  0
  1 19  1  0
  1 20  1  0
  2 21  1  0
  3 22  1  0
  4 23  1  0
  4 24  1  0
  6 25  1  0
  6 26  1  0
  7 27  1  0
  9 28  1  0
  9 29  1  0
 10 30  1  0
 10 31  1  0
 11 32  1  0
 11 33  1  0
 12 34  1  0
 12 35  1  0
 13 36  1  0
 14 37  1  0
 14 38  1  0
 15 39  1  0
 16 40  1  0
 17 41  1  0
 17 42  1  0
 18 43  1  0
 18 44  1  0
M  END
$$$$
