
     RDKit          2D

103109  0  0  0  0  0  0  0  0999 V2000
    2.1313   -3.3605    0.0000 C   0  0  0  0  0  0  0  0  0  0  0  0
    0.6355   -3.4726    0.0000 C   0  0  0  0  0  0  0  0  0  0  0  0
   -0.2094   -2.2332    0.0000 C   0  0  0  0  0  0  0  0  0  0  0  0
   -1.2297   -3.3328    0.0000 C   0  0  0  0  0  0  0  0  0  0  0  0
   -0.8741   -4.7901    0.0000 C   0  0  0  0  0  0  0  0  0  0  0  0
    0.5380   -4.2841    0.0000 C   0  0  0  0  0  0  0  0  0  0  0  0
   -2.1501   -5.5786    0.0000 C   0  0  0  0  0  0  0  0  0  0  0  0
   -3.2944   -4.6087    0.0000 C   0  0  0  0  0  0  0  0  0  0  0  0
   -3.6062   -6.0759    0.0000 C   0  0  0  0  0  0  0  0  0  0  0  0
   -4.9478   -6.7469    0.0000 C   0  0  0  0  0  0  0  0  0  0  0  0
   -6.3088   -6.1163    0.0000 C   0  0  0  0  0  0  0  0  0  0  0  0
   -6.6207   -7.5836    0.0000 C   0  0  0  0  0  0  0  0  0  0  0  0
   -6.9326   -9.0508    0.0000 C   0  0  0  0  0  0  0  0  0  0  0  0
   -7.2444  -10.5180    0.0000 C   0  0  0  0  0  0  0  0  0  0  0  0
   -7.5563  -11.9852    0.0000 C   0  0  0  0  0  0  0  0  0  0  0  0
   -5.7772  -10.8299    0.0000 C   0  0  0  0  0  0  0  0  0  0  0  0
   -5.8296  -12.3290    0.0000 C   0  0  0  0  0  0  0  0  0  0  0  0
   -7.1540  -13.0332    0.0000 C   0  0  0  0  0  0  0  0  0  0  0  0
   -8.4784  -13.7374    0.0000 C   0  0  0  0  0  0  0  0  0  0  0  0
   -9.8028  -14.4416    0.0000 C   0  0  0  0  0  0  0  0  0  0  0  0
   -4.5575  -13.1238    0.0000 C   0  0  0  0  0  0  0  0  0  0  0  0
   -5.1194  -14.5146    0.0000 C   0  0  0  0  0  0  0  0  0  0  0  0
   -5.6813  -15.9054    0.0000 C   0  0  0  0  0  0  0  0  0  0  0  0
   -6.2432  -17.2962    0.0000 C   0  0  0  0  0  0  0  0  0  0  0  0
   -4.5051  -11.6248    0.0000 C   0  0  0  0  0  0  0  0  0  0  0  0
   -3.1807  -10.9205    0.0000 C   0  0  0  0  0  0  0  0  0  0  0  0
   -1.8563  -10.2163    0.0000 O   0  0  0  0  0  0  0  0  0  0  0  0
   -0.5842  -11.0112    0.0000 N   0  0  0  0  0  0  0  0  0  0  0  0
   -6.6644   -4.6591    0.0000 C   0  0  0  0  0  0  0  0  0  0  0  0
   -5.7469   -3.4725    0.0000 C   0  0  0  0  0  0  0  0  0  0  0  0
   -4.2470   -3.4501    0.0000 C   0  0  0  0  0  0  0  0  0  0  0  0
   -4.6026   -1.9928    0.0000 C   0  0  0  0  0  0  0  0  0  0  0  0
   -2.7255   -3.2207    0.0000 C   0  0  0  0  0  0  0  0  0  0  0  0
   -3.5705   -1.9814    0.0000 C   0  0  0  0  0  0  0  0  0  0  0  0
   -3.1284   -0.5480    0.0000 C   0  0  0  0  0  0  0  0  0  0  0  0
   -1.7321    0.0000    0.0000 C   0  0  0  0  0  0  0  0  0  0  0  0
   -2.3829    1.3515    0.0000 C   0  0  0  0  0  0  0  0  0  0  0  0
   -0.4330    0.7500    0.0000 C   0  0  0  0  0  0  0  0  0  0  0  0
    0.8660    0.0000    0.0000 C   0  0  0  0  0  0  0  0  0  0  0  0
   -0.4330   -0.7500    0.0000 C   0  0  0  0  0  0  0  0  0  0  0  0
    2.9763   -4.5999    0.0000 H   0  0  0  0  0  0  0  0  0  0  0  0
    2.7822   -2.0091    0.0000 H   0  0  0  0  0  0  0  0  0  0  0  0
    0.4737   -4.2532    0.0000 H   0  0  0  0  0  0  0  0  0  0  0  0
    1.2432   -1.8595    0.0000 H   0  0  0  0  0  0  0  0  0  0  0  0
   -2.3444   -4.3365    0.0000 H   0  0  0  0  0  0  0  0  0  0  0  0
   -0.2233   -6.1415    0.0000 H   0  0  0  0  0  0  0  0  0  0  0  0
    2.0305   -4.1348    0.0000 H   0  0  0  0  0  0  0  0  0  0  0  0
    1.0440   -5.6961    0.0000 H   0  0  0  0  0  0  0  0  0  0  0  0
    0.3887   -2.7915    0.0000 H   0  0  0  0  0  0  0  0  0  0  0  0
   -1.2325   -6.7652    0.0000 H   0  0  0  0  0  0  0  0  0  0  0  0
   -2.9513   -6.8467    0.0000 H   0  0  0  0  0  0  0  0  0  0  0  0
   -2.1455   -6.4171    0.0000 H   0  0  0  0  0  0  0  0  0  0  0  0
   -3.0756   -7.4789    0.0000 H   0  0  0  0  0  0  0  0  0  0  0  0
   -4.1434   -8.0130    0.0000 H   0  0  0  0  0  0  0  0  0  0  0  0
   -5.7139   -8.0365    0.0000 H   0  0  0  0  0  0  0  0  0  0  0  0
   -7.7947   -6.3214    0.0000 H   0  0  0  0  0  0  0  0  0  0  0  0
   -8.0879   -7.2717    0.0000 H   0  0  0  0  0  0  0  0  0  0  0  0
   -5.2024   -8.0720    0.0000 H   0  0  0  0  0  0  0  0  0  0  0  0
   -8.3998   -8.7389    0.0000 H   0  0  0  0  0  0  0  0  0  0  0  0
   -5.4383   -9.1815    0.0000 H   0  0  0  0  0  0  0  0  0  0  0  0
   -8.7116  -10.2061    0.0000 H   0  0  0  0  0  0  0  0  0  0  0  0
   -8.2139  -13.3334    0.0000 H   0  0  0  0  0  0  0  0  0  0  0  0
   -8.9746  -11.4968    0.0000 H   0  0  0  0  0  0  0  0  0  0  0  0
   -6.2081  -12.6429    0.0000 H   0  0  0  0  0  0  0  0  0  0  0  0
   -5.0500   -9.5180    0.0000 H   0  0  0  0  0  0  0  0  0  0  0  0
   -6.6165  -14.4336    0.0000 H   0  0  0  0  0  0  0  0  0  0  0  0
   -8.1577  -11.9185    0.0000 H   0  0  0  0  0  0  0  0  0  0  0  0
   -7.9409  -15.1378    0.0000 H   0  0  0  0  0  0  0  0  0  0  0  0
   -9.3388  -12.5087    0.0000 H   0  0  0  0  0  0  0  0  0  0  0  0
  -11.1272  -15.1458    0.0000 H   0  0  0  0  0  0  0  0  0  0  0  0
  -10.5070  -13.1172    0.0000 H   0  0  0  0  0  0  0  0  0  0  0  0
   -9.0986  -15.7660    0.0000 H   0  0  0  0  0  0  0  0  0  0  0  0
   -3.0903  -13.4357    0.0000 H   0  0  0  0  0  0  0  0  0  0  0  0
   -3.7286  -15.0765    0.0000 H   0  0  0  0  0  0  0  0  0  0  0  0
   -6.5683  -14.1264    0.0000 H   0  0  0  0  0  0  0  0  0  0  0  0
   -4.2905  -16.4673    0.0000 H   0  0  0  0  0  0  0  0  0  0  0  0
   -7.1302  -15.5172    0.0000 H   0  0  0  0  0  0  0  0  0  0  0  0
   -6.8051  -18.6869    0.0000 H   0  0  0  0  0  0  0  0  0  0  0  0
   -7.6340  -16.7343    0.0000 H   0  0  0  0  0  0  0  0  0  0  0  0
   -4.8524  -17.8581    0.0000 H   0  0  0  0  0  0  0  0  0  0  0  0
   -2.4765  -12.2450    0.0000 H   0  0  0  0  0  0  0  0  0  0  0  0
   -3.8849   -9.5961    0.0000 H   0  0  0  0  0  0  0  0  0  0  0  0
    0.7402  -10.3070    0.0000 H   0  0  0  0  0  0  0  0  0  0  0  0
   -0.6366  -12.5103    0.0000 H   0  0  0  0  0  0  0  0  0  0  0  0
   -8.0778   -5.1615    0.0000 H   0  0  0  0  0  0  0  0  0  0  0  0
   -7.7512   -3.6252    0.0000 H   0  0  0  0  0  0  0  0  0  0  0  0
   -7.0209   -2.6808    0.0000 H   0  0  0  0  0  0  0  0  0  0  0  0
   -5.6162   -1.9782    0.0000 H   0  0  0  0  0  0  0  0  0  0  0  0
   -3.1077   -2.4744    0.0000 H   0  0  0  0  0  0  0  0  0  0  0  0
   -5.3003   -0.6649    0.0000 H   0  0  0  0  0  0  0  0  0  0  0  0
   -3.2748   -1.2952    0.0000 H   0  0  0  0  0  0  0  0  0  0  0  0
   -6.0924   -2.1682    0.0000 H   0  0  0  0  0  0  0  0  0  0  0  0
   -2.0346   -1.8894    0.0000 H   0  0  0  0  0  0  0  0  0  0  0  0
   -4.8695   -1.2314    0.0000 H   0  0  0  0  0  0  0  0  0  0  0  0
   -4.8265   -2.8014    0.0000 H   0  0  0  0  0  0  0  0  0  0  0  0
   -3.5311    0.8969    0.0000 H   0  0  0  0  0  0  0  0  0  0  0  0
   -4.5526   -0.0773    0.0000 H   0  0  0  0  0  0  0  0  0  0  0  0
   -3.0337    2.7029    0.0000 H   0  0  0  0  0  0  0  0  0  0  0  0
   -1.1208    2.1622    0.0000 H   0  0  0  0  0  0  0  0  0  0  0  0
   -3.8036    0.8702    0.0000 H   0  0  0  0  0  0  0  0  0  0  0  0
   -0.2502    2.2388    0.0000 H   0  0  0  0  0  0  0  0  0  0  0  0
    1.8302    1.1491    0.0000 H   0  0  0  0  0  0  0  0  0  0  0  0
    1.9631   -1.0230    0.0000 H   0  0  0  0  0  0  0  0  0  0  0  0
  1  2  2  3
  2  3  1  0
  3  4  1  0
  4  5  1  0
  5  6  1  0
  5  7  1  0
  7  8  1  0
  8  9  1  0
  9 10  1  0
 10 11  1  0
 11 12  1  0
 12 13  1  0
 13 14  1  0
 14 15  1  0
 14 16  1  0
 16 17  1  0
 17 18  1  0
 18 19  1  0
 19 20  1  0
 17 21  1  0
 21 22  1  0
 22 23  1  0
 23 24  1  0
 21 25  1  0
 25 26  1  0
 26 27  1  0
 27 28  1  0
 11 29  1  0
 29 30  1  0
 30 31  1  0
 31 32  1  0
  8 33  1  0
 33 34  1  0
 34 35  1  0
 35 36  1  0
 36 37  1  0
 36 38  1  0
 38 39  1  0
 39 40  1  0
 40  3  1  0
 33  4  1  0
 40 36  1  0
 31  8  1  0
 40 38  1  0
 25 16  1  0
 25 17  1  0
  1 41  1  0
  1 42  1  0
  2 43  1  0
  3 44  1  0
  4 45  1  0
  5 46  1  0
  6 47  1  0
  6 48  1  0
  6 49  1  0
  7 50  1  0
  7 51  1  0
  9 52  1  0
  9 53  1  0
 10 54  1  0
 10 55  1  0
 11 56  1  0
 12 57  1  0
 12 58  1  0
 13 59  1  0
 13 60  1  0
 14 61  1  0
 15 62  1  0
 15 63  1  0
 15 64  1  0
 16 65  1  0
 18 66  1  0
 18 67  1  0
 19 68  1  0
 19 69  1  0
 20 70  1  0
 20 71  1  0
 20 72  1  0
 21 73  1  0
 22 74  1  0
 22 75  1  0
 23 76  1  0
 23 77  1  0
 24 78  1  0
 24 79  1  0
 24 80  1  0
 26 81  1  0
 26 82  1  0
 28 83  1  0
 28 84  1  0
 29 85  1  0
 29 86  1  0
 30 87  1  0
 30 88  1  0
 31 89  1  0
 32 90  1  0
 32 91  1  0
 32 92  1  0
 33 93  1  0
 34 94  1  0
 34 95  1  0
 35 96  1  0
 35 97  1  0
 37 98  1  0
 37 99  1  0
 37100  1  0
 38101  1  0
 39102  1  0
 39103  1  0
M  END
$$$$
