
     RDKit          2D

 27 27  0  0  0  0  0  0  0  0999 V2000
    1.8302    1.1491    0.0000 C   0  0  0  0  0  0  0  0  0  0  0  0
    0.8660    0.0000    0.0000 C   0  0  0  0  0  0  0  0  0  0  0  0
    1.8302   -1.1491    0.0000 O   0  0  0  0  0  0  0  0  0  0  0  0
   -0.4330    0.7500    0.0000 C   0  0  0  0  0  0  0  0  0  0  0  0
   -1.9102    1.0105    0.0000 C   0  0  0  0  0  0  0  0  0  0  0  0
   -3.3874    1.2709    0.0000 N   0  0  0  0  0  0  0  0  0  0  0  0
   -0.4330   -0.7500    0.0000 C   0  0  0  0  0  0  0  0  0  0  0  0
    0.0800   -2.1595    0.0000 P   0  0  0  0  0  0  0  0  0  0  0  0
   -0.8842   -3.3086    0.0000 O   0  0  0  0  0  0  0  0  0  0  0  0
    1.5572   -2.4200    0.0000 P   0  0  0  0  0  0  0  0  0  0  0  0
    2.0703   -3.8296    0.0000 O   0  0  0  0  0  0  0  0  0  0  0  0
    3.5475   -4.0900    0.0000 O   0  0  0  0  0  0  0  0  0  0  0  0
    4.0605   -5.4996    0.0000 O   0  0  0  0  0  0  0  0  0  0  0  0
    5.5377   -5.7600    0.0000 O   0  0  0  0  0  0  0  0  0  0  0  0
    2.7944    2.2981    0.0000 H   0  0  0  0  0  0  0  0  0  0  0  0
    0.9095    2.1364    0.0000 H   0  0  0  0  0  0  0  0  0  0  0  0
    2.9793    0.1849    0.0000 H   0  0  0  0  0  0  0  0  0  0  0  0
    3.2647   -0.7105    0.0000 H   0  0  0  0  0  0  0  0  0  0  0  0
   -0.1294    2.0654    0.0000 H   0  0  0  0  0  0  0  0  0  0  0  0
   -1.6498    2.4877    0.0000 H   0  0  0  0  0  0  0  0  0  0  0  0
   -2.3050   -0.2805    0.0000 H   0  0  0  0  0  0  0  0  0  0  0  0
   -3.9005    2.6805    0.0000 H   0  0  0  0  0  0  0  0  0  0  0  0
   -4.3516    0.1219    0.0000 H   0  0  0  0  0  0  0  0  0  0  0  0
   -1.7240   -1.1447    0.0000 H   0  0  0  0  0  0  0  0  0  0  0  0
   -0.3711   -4.7181    0.0000 H   0  0  0  0  0  0  0  0  0  0  0  0
    2.8692   -1.6929    0.0000 H   0  0  0  0  0  0  0  0  0  0  0  0
    6.0507   -7.1696    0.0000 H   0  0  0  0  0  0  0  0  0  0  0  0
  1  2  1  0
  2  3  1  0
  2  4  1  0
  4  5  1  0
  5  6  1  0
  4  7  1  0
  7  8  1  0
  8  9  1  0
  8 10  1  0
 10 11  1  0
 11 12  1  0
 12 13  1  0
 13 14  1  0
  7  2  1  0
  1 15  1  0
  1 16  1  0
  1 17  1  0
  3 18  1  0
  4 19  1  0
  5 20  1  0
  5 21  1  0
  6 22  1  0
  6 23  1  0
  7 24  1  0
  9 25  1  0
 10 26  1  0
 14 27  1  0
M  END
$$$$
