
     RDKit          2D

 60 63  0  0  0  0  0  0  0  0999 V2000
   -9.2963    2.3128    0.0000 C   0  0  0  0  0  0  0  0  0  0  0  0
   -7.8191    2.0524    0.0000 C   0  0  0  0  0  0  0  0  0  0  0  0
   -6.3419    1.7919    0.0000 C   0  0  0  0  0  0  0  0  0  0  0  0
   -4.8646    1.5314    0.0000 C   0  0  0  0  0  0  0  0  0  0  0  0
   -3.3874    1.2709    0.0000 C   0  0  0  0  0  0  0  0  0  0  0  0
   -1.9102    1.0105    0.0000 C   0  0  0  0  0  0  0  0  0  0  0  0
   -0.4330    0.7500    0.0000 C   0  0  0  0  0  0  0  0  0  0  0  0
    1.0442    1.0105    0.0000 C   0  0  0  0  0  0  0  0  0  0  0  0
    0.0800    2.1595    0.0000 C   0  0  0  0  0  0  0  0  0  0  0  0
    1.0442    3.3086    0.0000 N   0  0  0  0  0  0  0  0  0  0  0  0
   -6.6023    0.3147    0.0000 C   0  0  0  0  0  0  0  0  0  0  0  0
   -6.8628   -1.1625    0.0000 C   0  0  0  0  0  0  0  0  0  0  0  0
   -7.6128   -2.4616    0.0000 C   0  0  0  0  0  0  0  0  0  0  0  0
   -8.3628   -1.1625    0.0000 C   0  0  0  0  0  0  0  0  0  0  0  0
   -9.7723   -1.6756    0.0000 C   0  0  0  0  0  0  0  0  0  0  0  0
  -11.1819   -2.1886    0.0000 C   0  0  0  0  0  0  0  0  0  0  0  0
  -11.6949   -0.7791    0.0000 N   0  0  0  0  0  0  0  0  0  0  0  0
  -13.1721   -0.5186    0.0000 C   0  0  0  0  0  0  0  0  0  0  0  0
  -14.4712    0.2314    0.0000 C   0  0  0  0  0  0  0  0  0  0  0  0
  -13.1721    0.9814    0.0000 C   0  0  0  0  0  0  0  0  0  0  0  0
  -12.5914   -2.7016    0.0000 C   0  0  0  0  0  0  0  0  0  0  0  0
  -13.7405   -3.6658    0.0000 O   0  0  0  0  0  0  0  0  0  0  0  0
  -12.3309   -4.1788    0.0000 C   0  0  0  0  0  0  0  0  0  0  0  0
  -12.5914   -5.6560    0.0000 O   0  0  0  0  0  0  0  0  0  0  0  0
  -10.7735    2.5733    0.0000 H   0  0  0  0  0  0  0  0  0  0  0  0
   -9.0358    3.7900    0.0000 H   0  0  0  0  0  0  0  0  0  0  0  0
   -9.5307    0.9833    0.0000 H   0  0  0  0  0  0  0  0  0  0  0  0
   -7.5586    3.5296    0.0000 H   0  0  0  0  0  0  0  0  0  0  0  0
   -8.2194    1.1533    0.0000 H   0  0  0  0  0  0  0  0  0  0  0  0
   -6.0814    3.2691    0.0000 H   0  0  0  0  0  0  0  0  0  0  0  0
   -4.6042    3.0086    0.0000 H   0  0  0  0  0  0  0  0  0  0  0  0
   -4.9110    0.6469    0.0000 H   0  0  0  0  0  0  0  0  0  0  0  0
   -3.6479   -0.2063    0.0000 H   0  0  0  0  0  0  0  0  0  0  0  0
   -3.1270    2.7482    0.0000 H   0  0  0  0  0  0  0  0  0  0  0  0
   -2.1707   -0.4667    0.0000 H   0  0  0  0  0  0  0  0  0  0  0  0
   -1.8396    2.3586    0.0000 H   0  0  0  0  0  0  0  0  0  0  0  0
   -0.4330   -0.7500    0.0000 H   0  0  0  0  0  0  0  0  0  0  0  0
    1.5572   -0.3991    0.0000 H   0  0  0  0  0  0  0  0  0  0  0  0
    2.3432    1.7605    0.0000 H   0  0  0  0  0  0  0  0  0  0  0  0
   -0.9981    2.9720    0.0000 H   0  0  0  0  0  0  0  0  0  0  0  0
    0.5312    4.7181    0.0000 H   0  0  0  0  0  0  0  0  0  0  0  0
    2.5214    3.0481    0.0000 H   0  0  0  0  0  0  0  0  0  0  0  0
   -7.5715    0.4856    0.0000 H   0  0  0  0  0  0  0  0  0  0  0  0
   -5.7553    0.0557    0.0000 H   0  0  0  0  0  0  0  0  0  0  0  0
   -5.4533   -1.6756    0.0000 H   0  0  0  0  0  0  0  0  0  0  0  0
   -6.4637   -3.4258    0.0000 H   0  0  0  0  0  0  0  0  0  0  0  0
   -8.5335   -3.4489    0.0000 H   0  0  0  0  0  0  0  0  0  0  0  0
   -8.9120    0.0707    0.0000 H   0  0  0  0  0  0  0  0  0  0  0  0
   -9.4687   -2.9910    0.0000 H   0  0  0  0  0  0  0  0  0  0  0  0
  -10.1097   -0.2140    0.0000 H   0  0  0  0  0  0  0  0  0  0  0  0
  -10.5009   -3.5251    0.0000 H   0  0  0  0  0  0  0  0  0  0  0  0
  -10.8780    0.4790    0.0000 H   0  0  0  0  0  0  0  0  0  0  0  0
  -13.6686   -1.4929    0.0000 H   0  0  0  0  0  0  0  0  0  0  0  0
  -15.4353   -0.9177    0.0000 H   0  0  0  0  0  0  0  0  0  0  0  0
  -15.4353    1.3805    0.0000 H   0  0  0  0  0  0  0  0  0  0  0  0
  -13.6852    2.3910    0.0000 H   0  0  0  0  0  0  0  0  0  0  0  0
  -11.6949    1.2419    0.0000 H   0  0  0  0  0  0  0  0  0  0  0  0
  -13.2495   -1.8283    0.0000 H   0  0  0  0  0  0  0  0  0  0  0  0
  -10.8421   -4.3617    0.0000 H   0  0  0  0  0  0  0  0  0  0  0  0
  -14.0010   -6.1691    0.0000 H   0  0  0  0  0  0  0  0  0  0  0  0
  1  2  1  0
  2  3  1  0
  3  4  1  0
  4  5  1  0
  5  6  1  0
  6  7  1  0
  7  8  1  0
  8  9  1  0
  9 10  1  0
  3 11  1  0
 11 12  1  0
 12 13  1  0
 13 14  1  0
 14 15  1  0
 15 16  1  0
 16 17  1  0
 17 18  1  0
 18 19  1  0
 19 20  1  0
 16 21  1  0
 21 22  1  0
 22 23  1  0
 23 24  1  0
  9  7  1  0
 14 12  1  0
 20 18  1  0
 23 21  1  0
  1 25  1  0
  1 26  1  0
  1 27  1  0
  2 28  1  0
  2 29  1  0
  3 30  1  0
  4 31  1  0
  4 32  1  0
  5 33  1  0
  5 34  1  0
  6 35  1  0
  6 36  1  0
  7 37  1  0
  8 38  1  0
  8 39  1  0
  9 40  1  0
 10 41  1  0
 10 42  1  0
 11 43  1  0
 11 44  1  0
 12 45  1  0
 13 46  1  0
 13 47  1  0
 14 48  1  0
 15 49  1  0
 15 50  1  0
 16 51  1  0
 17 52  1  0
 18 53  1  0
 19 54  1  0
 19 55  1  0
 20 56  1  0
 20 57  1  0
 21 58  1  0
 23 59  1  0
 24 60  1  0
M  END
$$$$
