
     RDKit          2D

 22 26  0  0  0  0  0  0  0  0999 V2000
    1.8302    1.1491    0.0000 O   0  0  0  0  0  0  0  0  0  0  0  0
    0.8660    0.0000    0.0000 C   0  0  0  0  0  0  0  0  0  0  0  0
   -0.4330    0.7500    0.0000 O   0  0  0  0  0  0  0  0  0  0  0  0
   -0.4330   -0.7500    0.0000 C   0  0  0  0  0  0  0  0  0  0  0  0
   -1.7321   -1.5000    0.0000 C   0  0  0  0  0  0  0  0  0  0  0  0
   -1.7321   -3.0000    0.0000 C   0  0  0  0  0  0  0  0  0  0  0  0
   -3.0311   -3.7500    0.0000 C   0  0  0  0  0  0  0  0  0  0  0  0
   -3.0311   -5.2500    0.0000 C   0  0  0  0  0  0  0  0  0  0  0  0
   -1.7321   -6.0000    0.0000 C   0  0  0  0  0  0  0  0  0  0  0  0
   -0.4330   -5.2500    0.0000 C   0  0  0  0  0  0  0  0  0  0  0  0
   -0.4330   -3.7500    0.0000 C   0  0  0  0  0  0  0  0  0  0  0  0
   -0.4330   -2.2500    0.0000 C   0  0  0  0  0  0  0  0  0  0  0  0
    3.3074    0.8886    0.0000 H   0  0  0  0  0  0  0  0  0  0  0  0
    1.8302   -1.1491    0.0000 H   0  0  0  0  0  0  0  0  0  0  0  0
   -3.0311   -0.7500    0.0000 H   0  0  0  0  0  0  0  0  0  0  0  0
   -4.5083   -4.0105    0.0000 H   0  0  0  0  0  0  0  0  0  0  0  0
   -3.5441   -2.3405    0.0000 H   0  0  0  0  0  0  0  0  0  0  0  0
   -4.3301   -6.0000    0.0000 H   0  0  0  0  0  0  0  0  0  0  0  0
   -1.7321   -7.5000    0.0000 H   0  0  0  0  0  0  0  0  0  0  0  0
    1.0442   -4.9895    0.0000 H   0  0  0  0  0  0  0  0  0  0  0  0
    0.0800   -6.6595    0.0000 H   0  0  0  0  0  0  0  0  0  0  0  0
    1.0670   -3.7500    0.0000 H   0  0  0  0  0  0  0  0  0  0  0  0
  1  2  1  0
  2  3  1  0
  3  4  1  0
  4  5  1  0
  5  6  1  0
  6  7  1  0
  7  8  1  0
  8  9  2  0
  9 10  1  0
 10 11  1  0
 11 12  1  0
  4  2  1  0
 12  5  1  0
 12  4  1  0
 11  6  1  0
 12  6  1  0
  1 13  1  0
  2 14  1  0
  5 15  1  0
  7 16  1  0
  7 17  1  0
  8 18  1  0
  9 19  1  0
 10 20  1  0
 10 21  1  0
 11 22  1  0
M  END
$$$$
