
     RDKit          2D

 39 38  0  0  0  0  0  0  0  0999 V2000
    0.0000    0.0000    0.0000 C   0  0  0  0  0  0  0  0  0  0  0  0
    1.5000    0.0000    0.0000 C   0  0  0  0  0  0  0  0  0  0  0  0
    3.0000    0.0000    0.0000 C   0  0  0  0  0  0  0  0  0  0  0  0
    4.5000    0.0000    0.0000 C   0  0  0  0  0  0  0  0  0  0  0  0
    6.0000    0.0000    0.0000 C   0  0  0  0  0  0  0  0  0  0  0  0
    7.5000    0.0000    0.0000 C   0  0  0  0  0  0  0  0  0  0  0  0
    7.5000    1.5000    0.0000 N   0  0  0  0  0  0  0  0  0  0  0  0
    9.0000    0.0000    0.0000 C   0  0  0  0  0  0  0  0  0  0  0  0
   10.5000    0.0000    0.0000 N   0  0  0  0  0  0  0  0  0  0  0  0
    4.5000   -1.5000    0.0000 C   0  0  0  0  0  0  0  0  0  0  0  0
    4.5000   -3.0000    0.0000 C   0  0  0  0  0  0  0  0  0  0  0  0
    4.5000   -4.5000    0.0000 C   0  0  0  0  0  0  0  0  0  0  0  0
    6.0000   -3.0000    0.0000 C   0  0  0  0  0  0  0  0  0  0  0  0
    7.5000   -3.0000    0.0000 F   0  0  0  0  0  0  0  0  0  0  0  0
    5.8172   -4.4888    0.0000 F   0  0  0  0  0  0  0  0  0  0  0  0
   -1.5000    0.0000    0.0000 H   0  0  0  0  0  0  0  0  0  0  0  0
    0.0000    1.5000    0.0000 H   0  0  0  0  0  0  0  0  0  0  0  0
   -0.0000   -1.5000    0.0000 H   0  0  0  0  0  0  0  0  0  0  0  0
    1.5000   -1.5000    0.0000 H   0  0  0  0  0  0  0  0  0  0  0  0
    1.5000    1.5000    0.0000 H   0  0  0  0  0  0  0  0  0  0  0  0
    3.0000    1.5000    0.0000 H   0  0  0  0  0  0  0  0  0  0  0  0
    2.8920   -0.8791    0.0000 H   0  0  0  0  0  0  0  0  0  0  0  0
    4.5000    1.5000    0.0000 H   0  0  0  0  0  0  0  0  0  0  0  0
    5.8172    1.4888    0.0000 H   0  0  0  0  0  0  0  0  0  0  0  0
    6.1080   -0.8791    0.0000 H   0  0  0  0  0  0  0  0  0  0  0  0
    7.5000   -1.5000    0.0000 H   0  0  0  0  0  0  0  0  0  0  0  0
    8.6979    2.4028    0.0000 H   0  0  0  0  0  0  0  0  0  0  0  0
    6.3021    2.4028    0.0000 H   0  0  0  0  0  0  0  0  0  0  0  0
    9.0000   -1.5000    0.0000 H   0  0  0  0  0  0  0  0  0  0  0  0
    9.1828    1.4888    0.0000 H   0  0  0  0  0  0  0  0  0  0  0  0
   11.2500    1.2990    0.0000 H   0  0  0  0  0  0  0  0  0  0  0  0
   11.2500   -1.2990    0.0000 H   0  0  0  0  0  0  0  0  0  0  0  0
    5.3791   -1.6080    0.0000 H   0  0  0  0  0  0  0  0  0  0  0  0
    3.6209   -1.6080    0.0000 H   0  0  0  0  0  0  0  0  0  0  0  0
    3.0000   -3.0000    0.0000 H   0  0  0  0  0  0  0  0  0  0  0  0
    4.5000   -6.0000    0.0000 H   0  0  0  0  0  0  0  0  0  0  0  0
    3.6209   -4.3920    0.0000 H   0  0  0  0  0  0  0  0  0  0  0  0
    3.6209   -4.6080    0.0000 H   0  0  0  0  0  0  0  0  0  0  0  0
    6.1828   -4.4888    0.0000 H   0  0  0  0  0  0  0  0  0  0  0  0
  1  2  1  0
  2  3  1  0
  3  4  1  0
  4  5  1  0
  5  6  1  0
  6  7  1  0
  6  8  1  0
  8  9  1  0
  4 10  1  0
 10 11  1  0
 11 12  1  0
 11 13  1  0
 13 14  1  0
 13 15  1  0
  1 16  1  0
  1 17  1  0
  1 18  1  0
  2 19  1  0
  2 20  1  0
  3 21  1  0
  3 22  1  0
  4 23  1  6
  5 24  1  0
  5 25  1  0
  6 26  1  1
  7 27  1  0
  7 28  1  0
  8 29  1  0
  8 30  1  0
  9 31  1  0
  9 32  1  0
 10 33  1  0
 10 34  1  0
 11 35  1  6
 12 36  1  0
 12 37  1  0
 12 38  1  0
 13 39  1  0
M  END
$$$$
