
     RDKit          2D

119123  0  0  0  0  0  0  0  0999 V2000
    5.1555   -5.0708    0.0000 C   0  0  0  0  0  0  0  0  0  0  0  0
    3.6883   -4.7589    0.0000 C   0  0  0  0  0  0  0  0  0  0  0  0
    3.2247   -3.3323    0.0000 C   0  0  0  0  0  0  0  0  0  0  0  0
    2.7612   -1.9057    0.0000 C   0  0  0  0  0  0  0  0  0  0  0  0
    2.2977   -0.4792    0.0000 C   0  0  0  0  0  0  0  0  0  0  0  0
    2.7612   -1.9057    0.0000 C   0  0  0  0  0  0  0  0  0  0  0  0
    3.7243   -0.0156    0.0000 C   0  0  0  0  0  0  0  0  0  0  0  0
    5.1509    0.4479    0.0000 C   0  0  0  0  0  0  0  0  0  0  0  0
    6.5774    0.9114    0.0000 C   0  0  0  0  0  0  0  0  0  0  0  0
    3.2607    1.4110    0.0000 C   0  0  0  0  0  0  0  0  0  0  0  0
    2.7972    2.8375    0.0000 C   0  0  0  0  0  0  0  0  0  0  0  0
    2.3337    4.2641    0.0000 C   0  0  0  0  0  0  0  0  0  0  0  0
    1.8702    5.6907    0.0000 C   0  0  0  0  0  0  0  0  0  0  0  0
    1.3706    2.3740    0.0000 C   0  0  0  0  0  0  0  0  0  0  0  0
    1.9807    1.0037    0.0000 C   0  0  0  0  0  0  0  0  0  0  0  0
    0.8660    0.0000    0.0000 C   0  0  0  0  0  0  0  0  0  0  0  0
   -0.4330    0.7500    0.0000 C   0  0  0  0  0  0  0  0  0  0  0  0
   -0.1211    2.2172    0.0000 C   0  0  0  0  0  0  0  0  0  0  0  0
   -1.7321    0.0000    0.0000 C   0  0  0  0  0  0  0  0  0  0  0  0
   -2.6962    1.1491    0.0000 C   0  0  0  0  0  0  0  0  0  0  0  0
   -3.9953    1.8991    0.0000 O   0  0  0  0  0  0  0  0  0  0  0  0
   -3.9953    0.3991    0.0000 C   0  0  0  0  0  0  0  0  0  0  0  0
   -5.4725    0.1386    0.0000 C   0  0  0  0  0  0  0  0  0  0  0  0
   -6.9497   -0.1219    0.0000 C   0  0  0  0  0  0  0  0  0  0  0  0
   -5.2120   -1.3386    0.0000 C   0  0  0  0  0  0  0  0  0  0  0  0
   -4.9515   -2.8158    0.0000 C   0  0  0  0  0  0  0  0  0  0  0  0
   -4.6911   -4.2930    0.0000 C   0  0  0  0  0  0  0  0  0  0  0  0
   -4.4306   -5.7703    0.0000 C   0  0  0  0  0  0  0  0  0  0  0  0
   -4.1701   -7.2475    0.0000 C   0  0  0  0  0  0  0  0  0  0  0  0
   -6.4287   -3.0763    0.0000 C   0  0  0  0  0  0  0  0  0  0  0  0
   -7.9060   -3.3368    0.0000 C   0  0  0  0  0  0  0  0  0  0  0  0
   -9.3832   -3.5972    0.0000 C   0  0  0  0  0  0  0  0  0  0  0  0
  -10.8604   -3.8577    0.0000 C   0  0  0  0  0  0  0  0  0  0  0  0
  -12.3376   -4.1182    0.0000 C   0  0  0  0  0  0  0  0  0  0  0  0
   -0.4330   -0.7500    0.0000 C   0  0  0  0  0  0  0  0  0  0  0  0
   -0.4330   -2.2500    0.0000 C   0  0  0  0  0  0  0  0  0  0  0  0
   -0.4330   -3.7500    0.0000 C   0  0  0  0  0  0  0  0  0  0  0  0
   -1.0838   -5.1015    0.0000 C   0  0  0  0  0  0  0  0  0  0  0  0
   -0.4330   -6.4529    0.0000 C   0  0  0  0  0  0  0  0  0  0  0  0
    1.0294   -6.7867    0.0000 C   0  0  0  0  0  0  0  0  0  0  0  0
    2.2021   -5.8515    0.0000 O   0  0  0  0  0  0  0  0  0  0  0  0
    2.2021   -4.3515    0.0000 O   0  0  0  0  0  0  0  0  0  0  0  0
    1.0294   -3.4162    0.0000 C   0  0  0  0  0  0  0  0  0  0  0  0
    2.2021   -2.4810    0.0000 C   0  0  0  0  0  0  0  0  0  0  0  0
    3.3749   -1.5457    0.0000 C   0  0  0  0  0  0  0  0  0  0  0  0
    5.6190   -6.4974    0.0000 H   0  0  0  0  0  0  0  0  0  0  0  0
    6.1592   -3.9561    0.0000 H   0  0  0  0  0  0  0  0  0  0  0  0
    2.9841   -6.0834    0.0000 H   0  0  0  0  0  0  0  0  0  0  0  0
    1.8653   -3.9663    0.0000 H   0  0  0  0  0  0  0  0  0  0  0  0
    2.0591   -4.2764    0.0000 H   0  0  0  0  0  0  0  0  0  0  0  0
    1.3346   -2.3693    0.0000 H   0  0  0  0  0  0  0  0  0  0  0  0
    4.1207   -1.2718    0.0000 H   0  0  0  0  0  0  0  0  0  0  0  0
    0.8252   -0.7653    0.0000 H   0  0  0  0  0  0  0  0  0  0  0  0
    3.0474   -3.3782    0.0000 H   0  0  0  0  0  0  0  0  0  0  0  0
    1.4892   -2.7007    0.0000 H   0  0  0  0  0  0  0  0  0  0  0  0
    4.2337   -1.6196    0.0000 H   0  0  0  0  0  0  0  0  0  0  0  0
    4.6683   -1.1813    0.0000 H   0  0  0  0  0  0  0  0  0  0  0  0
    5.6144   -0.9787    0.0000 H   0  0  0  0  0  0  0  0  0  0  0  0
    4.8647    1.9203    0.0000 H   0  0  0  0  0  0  0  0  0  0  0  0
    8.0040    1.3749    0.0000 H   0  0  0  0  0  0  0  0  0  0  0  0
    7.0410   -0.5152    0.0000 H   0  0  0  0  0  0  0  0  0  0  0  0
    6.1139    2.3380    0.0000 H   0  0  0  0  0  0  0  0  0  0  0  0
    1.9887    0.6160    0.0000 H   0  0  0  0  0  0  0  0  0  0  0  0
    4.6202    2.0449    0.0000 H   0  0  0  0  0  0  0  0  0  0  0  0
    4.2238    3.3011    0.0000 H   0  0  0  0  0  0  0  0  0  0  0  0
    3.7603    4.7276    0.0000 H   0  0  0  0  0  0  0  0  0  0  0  0
    0.8612    3.9780    0.0000 H   0  0  0  0  0  0  0  0  0  0  0  0
    1.4066    7.1173    0.0000 H   0  0  0  0  0  0  0  0  0  0  0  0
    3.2968    6.1542    0.0000 H   0  0  0  0  0  0  0  0  0  0  0  0
    0.4436    5.2272    0.0000 H   0  0  0  0  0  0  0  0  0  0  0  0
    0.8822    3.7923    0.0000 H   0  0  0  0  0  0  0  0  0  0  0  0
    2.5426   -0.3871    0.0000 H   0  0  0  0  0  0  0  0  0  0  0  0
    3.4227    1.4171    0.0000 H   0  0  0  0  0  0  0  0  0  0  0  0
    1.5932   -1.3119    0.0000 H   0  0  0  0  0  0  0  0  0  0  0  0
   -0.1211    3.7172    0.0000 H   0  0  0  0  0  0  0  0  0  0  0  0
   -1.5827    2.5547    0.0000 H   0  0  0  0  0  0  0  0  0  0  0  0
   -2.5490   -1.2580    0.0000 H   0  0  0  0  0  0  0  0  0  0  0  0
   -1.8793    2.4071    0.0000 H   0  0  0  0  0  0  0  0  0  0  0  0
   -3.4822   -1.0105    0.0000 H   0  0  0  0  0  0  0  0  0  0  0  0
   -5.7330    1.6158    0.0000 H   0  0  0  0  0  0  0  0  0  0  0  0
   -8.4269   -0.3824    0.0000 H   0  0  0  0  0  0  0  0  0  0  0  0
   -7.2102    1.3553    0.0000 H   0  0  0  0  0  0  0  0  0  0  0  0
   -6.8712   -1.6198    0.0000 H   0  0  0  0  0  0  0  0  0  0  0  0
   -6.6465   -1.7772    0.0000 H   0  0  0  0  0  0  0  0  0  0  0  0
   -3.7141   -1.2602    0.0000 H   0  0  0  0  0  0  0  0  0  0  0  0
   -3.4743   -2.5554    0.0000 H   0  0  0  0  0  0  0  0  0  0  0  0
   -6.0614   -4.9032    0.0000 H   0  0  0  0  0  0  0  0  0  0  0  0
   -3.2139   -4.0326    0.0000 H   0  0  0  0  0  0  0  0  0  0  0  0
   -5.9078   -6.0307    0.0000 H   0  0  0  0  0  0  0  0  0  0  0  0
   -2.9326   -5.6918    0.0000 H   0  0  0  0  0  0  0  0  0  0  0  0
   -3.9096   -8.7247    0.0000 H   0  0  0  0  0  0  0  0  0  0  0  0
   -5.6473   -7.5079    0.0000 H   0  0  0  0  0  0  0  0  0  0  0  0
   -2.6722   -7.1690    0.0000 H   0  0  0  0  0  0  0  0  0  0  0  0
   -6.5335   -4.5726    0.0000 H   0  0  0  0  0  0  0  0  0  0  0  0
   -6.1683   -4.5535    0.0000 H   0  0  0  0  0  0  0  0  0  0  0  0
   -7.6455   -4.8140    0.0000 H   0  0  0  0  0  0  0  0  0  0  0  0
   -8.1664   -1.8596    0.0000 H   0  0  0  0  0  0  0  0  0  0  0  0
   -9.6436   -2.1200    0.0000 H   0  0  0  0  0  0  0  0  0  0  0  0
   -9.1227   -5.0745    0.0000 H   0  0  0  0  0  0  0  0  0  0  0  0
  -10.5999   -5.3349    0.0000 H   0  0  0  0  0  0  0  0  0  0  0  0
  -11.1209   -2.3805    0.0000 H   0  0  0  0  0  0  0  0  0  0  0  0
  -13.8148   -4.3787    0.0000 H   0  0  0  0  0  0  0  0  0  0  0  0
  -12.5981   -2.6410    0.0000 H   0  0  0  0  0  0  0  0  0  0  0  0
  -12.0771   -5.5954    0.0000 H   0  0  0  0  0  0  0  0  0  0  0  0
   -1.9330   -2.2500    0.0000 H   0  0  0  0  0  0  0  0  0  0  0  0
    1.0558   -2.4328    0.0000 H   0  0  0  0  0  0  0  0  0  0  0  0
   -1.8438   -3.2404    0.0000 H   0  0  0  0  0  0  0  0  0  0  0  0
   -2.3618   -4.3161    0.0000 H   0  0  0  0  0  0  0  0  0  0  0  0
   -2.2566   -6.0367    0.0000 H   0  0  0  0  0  0  0  0  0  0  0  0
   -1.7712   -7.1306    0.0000 H   0  0  0  0  0  0  0  0  0  0  0  0
   -0.6159   -7.9417    0.0000 H   0  0  0  0  0  0  0  0  0  0  0  0
    0.5481   -8.2074    0.0000 H   0  0  0  0  0  0  0  0  0  0  0  0
    2.2021   -7.7219    0.0000 H   0  0  0  0  0  0  0  0  0  0  0  0
    0.5481   -1.9955    0.0000 H   0  0  0  0  0  0  0  0  0  0  0  0
    2.6549   -3.9110    0.0000 H   0  0  0  0  0  0  0  0  0  0  0  0
    1.0109   -1.5694    0.0000 H   0  0  0  0  0  0  0  0  0  0  0  0
    4.8049   -1.0930    0.0000 H   0  0  0  0  0  0  0  0  0  0  0  0
    4.1602   -2.8238    0.0000 H   0  0  0  0  0  0  0  0  0  0  0  0
    4.4461   -2.5957    0.0000 H   0  0  0  0  0  0  0  0  0  0  0  0
  1  2  2  3
  2  3  1  0
  3  4  1  0
  4  5  1  0
  5  6  1  0
  5  7  1  0
  7  8  1  0
  8  9  1  0
  7 10  1  0
 10 11  1  0
 11 12  1  0
 12 13  1  0
 11 14  1  0
 14 15  1  0
 15 16  1  0
 16 17  1  0
 17 18  1  1
 17 19  1  0
 19 20  1  0
 20 21  1  0
 21 22  1  0
 22 23  1  0
 23 24  1  0
 23 25  1  0
 25 26  1  0
 26 27  1  0
 27 28  1  0
 28 29  1  0
 26 30  1  0
 30 31  1  0
 31 32  1  0
 32 33  1  0
 33 34  1  0
 19 35  1  0
 35 36  1  1
 36 37  1  0
 37 38  1  0
 38 39  1  0
 39 40  1  0
 40 41  1  0
 41 42  1  0
 42 43  1  0
 43 44  1  0
 44 45  1  0
 18 14  1  0
 22 20  1  0
 43 37  1  0
 35 16  1  0
 35 17  1  0
  1 46  1  0
  1 47  1  0
  2 48  1  0
  3 49  1  0
  3 50  1  0
  4 51  1  0
  4 52  1  0
  5 53  1  1
  6 54  1  0
  6 55  1  0
  6 56  1  0
  7 57  1  1
  8 58  1  0
  8 59  1  0
  9 60  1  0
  9 61  1  0
  9 62  1  0
 10 63  1  0
 10 64  1  0
 11 65  1  1
 12 66  1  0
 12 67  1  0
 13 68  1  0
 13 69  1  0
 13 70  1  0
 14 71  1  6
 15 72  1  0
 15 73  1  0
 16 74  1  1
 18 75  1  0
 18 76  1  0
 19 77  1  6
 20 78  1  6
 22 79  1  6
 23 80  1  1
 24 81  1  0
 24 82  1  0
 24 83  1  0
 25 84  1  0
 25 85  1  0
 26 86  1  1
 27 87  1  0
 27 88  1  0
 28 89  1  0
 28 90  1  0
 29 91  1  0
 29 92  1  0
 29 93  1  0
 30 94  1  0
 30 95  1  0
 31 96  1  0
 31 97  1  0
 32 98  1  0
 32 99  1  0
 33100  1  0
 33101  1  0
 34102  1  0
 34103  1  0
 34104  1  0
 36105  1  0
 36106  1  0
 37107  1  1
 38108  1  0
 38109  1  0
 39110  1  0
 39111  1  0
 40112  1  0
 40113  1  0
 43114  1  1
 44115  1  0
 44116  1  0
 45117  1  0
 45118  1  0
 45119  1  0
M  END
$$$$
