
     RDKit          2D

 80 90  0  0  0  0  0  0  0  0999 V2000
   -0.7422  -10.3949    0.0000 C   0  0  0  0  0  0  0  0  0  0  0  0
    0.0842   -9.1431    0.0000 C   0  0  0  0  0  0  0  0  0  0  0  0
   -0.5868   -7.8015    0.0000 C   0  0  0  0  0  0  0  0  0  0  0  0
    0.8705   -7.4459    0.0000 C   0  0  0  0  0  0  0  0  0  0  0  0
    1.5010   -6.0848    0.0000 C   0  0  0  0  0  0  0  0  0  0  0  0
    0.8300   -4.7433    0.0000 C   0  0  0  0  0  0  0  0  0  0  0  0
    2.2566   -4.2798    0.0000 C   0  0  0  0  0  0  0  0  0  0  0  0
    1.7931   -2.8532    0.0000 C   0  0  0  0  0  0  0  0  0  0  0  0
    1.3296   -1.4266    0.0000 C   0  0  0  0  0  0  0  0  0  0  0  0
    0.8660    0.0000    0.0000 C   0  0  0  0  0  0  0  0  0  0  0  0
    2.3578    0.1568    0.0000 C   0  0  0  0  0  0  0  0  0  0  0  0
    3.4725    1.1605    0.0000 C   0  0  0  0  0  0  0  0  0  0  0  0
    3.7844    2.6277    0.0000 C   0  0  0  0  0  0  0  0  0  0  0  0
    4.8991    3.6314    0.0000 C   0  0  0  0  0  0  0  0  0  0  0  0
    6.0138    4.6351    0.0000 Br  0  0  0  0  0  0  0  0  0  0  0  0
    3.1743    3.9980    0.0000 C   0  0  0  0  0  0  0  0  0  0  0  0
    1.8752    4.7480    0.0000 C   0  0  0  0  0  0  0  0  0  0  0  0
    0.3835    4.5912    0.0000 C   0  0  0  0  0  0  0  0  0  0  0  0
   -0.7313    3.5875    0.0000 C   0  0  0  0  0  0  0  0  0  0  0  0
   -1.0431    2.1203    0.0000 C   0  0  0  0  0  0  0  0  0  0  0  0
   -0.4330    0.7500    0.0000 C   0  0  0  0  0  0  0  0  0  0  0  0
   -0.4330   -0.7500    0.0000 C   0  0  0  0  0  0  0  0  0  0  0  0
    0.2267    6.0830    0.0000 C   0  0  0  0  0  0  0  0  0  0  0  0
    1.7185    6.2398    0.0000 C   0  0  0  0  0  0  0  0  0  0  0  0
    1.9531    7.7213    0.0000 C   0  0  0  0  0  0  0  0  0  0  0  0
    3.3535    8.2589    0.0000 C   0  0  0  0  0  0  0  0  0  0  0  0
    3.5881    9.7404    0.0000 C   0  0  0  0  0  0  0  0  0  0  0  0
    4.5192    7.3149    0.0000 C   0  0  0  0  0  0  0  0  0  0  0  0
    5.6513    8.2990    0.0000 C   0  0  0  0  0  0  0  0  0  0  0  0
    3.1188    6.7774    0.0000 C   0  0  0  0  0  0  0  0  0  0  0  0
    0.3665   -3.3167    0.0000 C   0  0  0  0  0  0  0  0  0  0  0  0
   -0.6372   -4.4314    0.0000 Si  0  0  0  0  0  4  0  0  0  0  0  0
   -1.6738   -3.3472    0.0000 C   0  0  0  0  0  0  0  0  0  0  0  0
   -1.7958   -5.3841    0.0000 C   0  0  0  0  0  0  0  0  0  0  0  0
   -1.7734   -6.8839    0.0000 C   0  0  0  0  0  0  0  0  0  0  0  0
   -0.0712  -11.7365    0.0000 H   0  0  0  0  0  0  0  0  0  0  0  0
   -2.2395  -10.3052    0.0000 H   0  0  0  0  0  0  0  0  0  0  0  0
    0.9553   -9.3034    0.0000 H   0  0  0  0  0  0  0  0  0  0  0  0
   -1.6206   -8.8883    0.0000 H   0  0  0  0  0  0  0  0  0  0  0  0
    2.2887   -7.9343    0.0000 H   0  0  0  0  0  0  0  0  0  0  0  0
    0.9916   -8.3233    0.0000 H   0  0  0  0  0  0  0  0  0  0  0  0
    2.1739   -5.6574    0.0000 H   0  0  0  0  0  0  0  0  0  0  0  0
    2.7906   -6.8509    0.0000 H   0  0  0  0  0  0  0  0  0  0  0  0
    3.6832   -3.8162    0.0000 H   0  0  0  0  0  0  0  0  0  0  0  0
    2.5935   -5.0022    0.0000 H   0  0  0  0  0  0  0  0  0  0  0  0
    3.2197   -2.3896    0.0000 H   0  0  0  0  0  0  0  0  0  0  0  0
    2.8020   -1.1404    0.0000 H   0  0  0  0  0  0  0  0  0  0  0  0
   -0.1668   -1.5311    0.0000 H   0  0  0  0  0  0  0  0  0  0  0  0
    3.5557   -0.7460    0.0000 H   0  0  0  0  0  0  0  0  0  0  0  0
    2.5926   -1.3247    0.0000 H   0  0  0  0  0  0  0  0  0  0  0  0
    4.9723    1.1343    0.0000 H   0  0  0  0  0  0  0  0  0  0  0  0
    4.2451   -0.1252    0.0000 H   0  0  0  0  0  0  0  0  0  0  0  0
    5.1652    2.0417    0.0000 H   0  0  0  0  0  0  0  0  0  0  0  0
    5.9028    2.5167    0.0000 H   0  0  0  0  0  0  0  0  0  0  0  0
    4.0388    4.8602    0.0000 H   0  0  0  0  0  0  0  0  0  0  0  0
    3.3050    5.4923    0.0000 H   0  0  0  0  0  0  0  0  0  0  0  0
    4.5838    4.5111    0.0000 H   0  0  0  0  0  0  0  0  0  0  0  0
    0.3864    4.9308    0.0000 H   0  0  0  0  0  0  0  0  0  0  0  0
   -1.0169    5.1288    0.0000 H   0  0  0  0  0  0  0  0  0  0  0  0
   -2.0303    4.3375    0.0000 H   0  0  0  0  0  0  0  0  0  0  0  0
   -2.5349    1.9635    0.0000 H   0  0  0  0  0  0  0  0  0  0  0  0
   -1.9002    0.4381    0.0000 H   0  0  0  0  0  0  0  0  0  0  0  0
   -1.1830   -2.0490    0.0000 H   0  0  0  0  0  0  0  0  0  0  0  0
   -0.9390    7.0270    0.0000 H   0  0  0  0  0  0  0  0  0  0  0  0
    0.7874    8.6653    0.0000 H   0  0  0  0  0  0  0  0  0  0  0  0
    3.8228   11.2220    0.0000 H   0  0  0  0  0  0  0  0  0  0  0  0
    5.0872    9.6881    0.0000 H   0  0  0  0  0  0  0  0  0  0  0  0
    2.1066    9.9751    0.0000 H   0  0  0  0  0  0  0  0  0  0  0  0
    5.2918    6.0292    0.0000 H   0  0  0  0  0  0  0  0  0  0  0  0
    6.7833    9.2831    0.0000 H   0  0  0  0  0  0  0  0  0  0  0  0
    6.6354    7.1669    0.0000 H   0  0  0  0  0  0  0  0  0  0  0  0
    4.8125    9.5426    0.0000 H   0  0  0  0  0  0  0  0  0  0  0  0
   -0.5977   -2.1677    0.0000 H   0  0  0  0  0  0  0  0  0  0  0  0
   -2.7104   -2.2630    0.0000 H   0  0  0  0  0  0  0  0  0  0  0  0
   -2.8763   -4.2439    0.0000 H   0  0  0  0  0  0  0  0  0  0  0  0
   -0.7240   -2.1862    0.0000 H   0  0  0  0  0  0  0  0  0  0  0  0
   -3.2855   -5.5594    0.0000 H   0  0  0  0  0  0  0  0  0  0  0  0
   -2.6253   -4.1343    0.0000 H   0  0  0  0  0  0  0  0  0  0  0  0
   -2.5651   -8.1579    0.0000 H   0  0  0  0  0  0  0  0  0  0  0  0
   -3.2677   -6.7532    0.0000 H   0  0  0  0  0  0  0  0  0  0  0  0
  1  2  2  3
  2  3  1  0
  3  4  1  0
  4  5  1  0
  5  6  1  0
  6  7  1  0
  7  8  1  0
  8  9  1  0
  9 10  1  0
 10 11  1  0
 11 12  1  0
 12 13  1  0
 13 14  1  0
 14 15  1  0
 13 16  1  0
 16 17  1  0
 17 18  1  0
 18 19  1  0
 19 20  1  0
 20 21  1  0
 21 22  1  0
 19 23  1  0
 23 24  1  0
 24 25  1  0
 25 26  1  0
 26 27  1  0
 26 28  1  0
 28 29  1  0
 28 30  1  0
  8 31  1  0
 31 32  1  0
 32 33  1  0
 32 34  1  0
 34 35  1  0
 35  3  1  0
 31  6  1  0
 32  6  1  0
 21 10  1  0
 30 24  1  0
 22 10  1  0
 30 25  1  0
 24 17  1  0
 30 26  1  0
 23 18  1  0
 22 20  1  0
  1 36  1  0
  1 37  1  0
  2 38  1  0
  3 39  1  0
  4 40  1  0
  4 41  1  0
  5 42  1  0
  5 43  1  0
  7 44  1  0
  7 45  1  0
  8 46  1  0
  9 47  1  0
  9 48  1  0
 11 49  1  0
 11 50  1  0
 12 51  1  0
 12 52  1  0
 13 53  1  0
 14 54  1  0
 14 55  1  0
 16 56  1  0
 16 57  1  0
 17 58  1  0
 18 59  1  0
 19 60  1  0
 20 61  1  0
 21 62  1  0
 22 63  1  0
 23 64  1  0
 25 65  1  0
 27 66  1  0
 27 67  1  0
 27 68  1  0
 28 69  1  0
 29 70  1  0
 29 71  1  0
 29 72  1  0
 31 73  1  0
 33 74  1  0
 33 75  1  0
 33 76  1  0
 34 77  1  0
 34 78  1  0
 35 79  1  0
 35 80  1  0
M  END
$$$$
