
     RDKit          2D

104109  0  0  0  0  0  0  0  0999 V2000
    4.9151   -2.2253    0.0000 C   0  0  0  0  0  0  0  0  0  0  0  0
    3.8544   -1.1647    0.0000 C   0  0  0  0  0  0  0  0  0  0  0  0
    4.2426    0.2842    0.0000 C   0  0  0  0  0  0  0  0  0  0  0  0
    4.6309    1.7331    0.0000 C   0  0  0  0  0  0  0  0  0  0  0  0
    5.0191    3.1820    0.0000 C   0  0  0  0  0  0  0  0  0  0  0  0
    5.4073    4.6309    0.0000 C   0  0  0  0  0  0  0  0  0  0  0  0
    5.7956    6.0798    0.0000 C   0  0  0  0  0  0  0  0  0  0  0  0
    4.7349    7.1404    0.0000 C   0  0  0  0  0  0  0  0  0  0  0  0
    5.1231    8.5893    0.0000 C   0  0  0  0  0  0  0  0  0  0  0  0
    4.9924   10.0836    0.0000 C   0  0  0  0  0  0  0  0  0  0  0  0
    3.7637    9.2232    0.0000 C   0  0  0  0  0  0  0  0  0  0  0  0
    6.8562    4.2426    0.0000 C   0  0  0  0  0  0  0  0  0  0  0  0
    7.2444    5.6915    0.0000 C   0  0  0  0  0  0  0  0  0  0  0  0
    8.6933    5.3033    0.0000 N   0  0  0  0  0  0  0  0  0  0  0  0
    9.9924    6.0533    0.0000 C   0  0  0  0  0  0  0  0  0  0  0  0
    8.3051    3.8544    0.0000 C   0  0  0  0  0  0  0  0  0  0  0  0
    9.7540    3.4662    0.0000 C   0  0  0  0  0  0  0  0  0  0  0  0
   11.2029    3.0780    0.0000 C   0  0  0  0  0  0  0  0  0  0  0  0
   12.6518    2.6897    0.0000 C   0  0  0  0  0  0  0  0  0  0  0  0
    7.9169    2.4055    0.0000 C   0  0  0  0  0  0  0  0  0  0  0  0
    8.9775    1.3449    0.0000 C   0  0  0  0  0  0  0  0  0  0  0  0
    6.4680    2.0173    0.0000 C   0  0  0  0  0  0  0  0  0  0  0  0
    3.1820    2.1213    0.0000 N   0  0  0  0  0  0  0  0  0  0  0  0
    2.1213    1.0607    0.0000 C   0  0  0  0  0  0  0  0  0  0  0  0
    1.0607    0.0000    0.0000 C   0  0  0  0  0  0  0  0  0  0  0  0
    0.0000   -1.0607    0.0000 C   0  0  0  0  0  0  0  0  0  0  0  0
    1.0607   -2.1213    0.0000 C   0  0  0  0  0  0  0  0  0  0  0  0
    2.3187   -2.9383    0.0000 N   0  0  0  0  0  0  0  0  0  0  0  0
    1.9304   -4.3872    0.0000 C   0  0  0  0  0  0  0  0  0  0  0  0
    0.4325   -4.4657    0.0000 C   0  0  0  0  0  0  0  0  0  0  0  0
   -0.1051   -3.0653    0.0000 C   0  0  0  0  0  0  0  0  0  0  0  0
   -1.4416   -3.7463    0.0000 O   0  0  0  0  0  0  0  0  0  0  0  0
   -1.0607   -0.0000    0.0000 C   0  0  0  0  0  0  0  0  0  0  0  0
   -2.5095    0.3882    0.0000 C   0  0  0  0  0  0  0  0  0  0  0  0
   -2.8978    1.8371    0.0000 N   0  0  0  0  0  0  0  0  0  0  0  0
   -1.8371    2.8978    0.0000 C   0  0  0  0  0  0  0  0  0  0  0  0
   -0.3882    2.5095    0.0000 C   0  0  0  0  0  0  0  0  0  0  0  0
    1.1061    2.6403    0.0000 Mg  0  0  0  0  0  2  0  0  0  0  0  0
    2.6004    2.7710    0.0000 Se  0  0  0  0  0  2  0  0  0  0  0  0
    0.0000    1.0607    0.0000 C   0  0  0  0  0  0  0  0  0  0  0  0
    2.7938    3.5702    0.0000 C   0  0  0  0  0  0  0  0  0  0  0  0
    1.2995    3.4395    0.0000 C   0  0  0  0  0  0  0  0  0  0  0  0
    2.9245    5.0645    0.0000 C   0  0  0  0  0  0  0  0  0  0  0  0
    4.1532    4.2041    0.0000 C   0  0  0  0  0  0  0  0  0  0  0  0
    4.5268   -3.6742    0.0000 H   0  0  0  0  0  0  0  0  0  0  0  0
    6.3640   -1.8371    0.0000 H   0  0  0  0  0  0  0  0  0  0  0  0
    2.4055   -1.5529    0.0000 H   0  0  0  0  0  0  0  0  0  0  0  0
    2.7509    0.1273    0.0000 H   0  0  0  0  0  0  0  0  0  0  0  0
    5.6915   -0.1040    0.0000 H   0  0  0  0  0  0  0  0  0  0  0  0
    5.9428    1.0058    0.0000 H   0  0  0  0  0  0  0  0  0  0  0  0
    3.7072    3.9093    0.0000 H   0  0  0  0  0  0  0  0  0  0  0  0
    6.3310    2.4547    0.0000 H   0  0  0  0  0  0  0  0  0  0  0  0
    3.9584    5.0191    0.0000 H   0  0  0  0  0  0  0  0  0  0  0  0
    7.0090    6.9615    0.0000 H   0  0  0  0  0  0  0  0  0  0  0  0
    3.2495    6.9317    0.0000 H   0  0  0  0  0  0  0  0  0  0  0  0
    6.6174    8.4586    0.0000 H   0  0  0  0  0  0  0  0  0  0  0  0
    6.4413   10.4718    0.0000 H   0  0  0  0  0  0  0  0  0  0  0  0
    4.3585   11.4431    0.0000 H   0  0  0  0  0  0  0  0  0  0  0  0
    2.7030   10.2839    0.0000 H   0  0  0  0  0  0  0  0  0  0  0  0
    2.9033    7.9945    0.0000 H   0  0  0  0  0  0  0  0  0  0  0  0
    6.1289    2.9308    0.0000 H   0  0  0  0  0  0  0  0  0  0  0  0
    7.8064    7.0823    0.0000 H   0  0  0  0  0  0  0  0  0  0  0  0
    5.9326    6.4188    0.0000 H   0  0  0  0  0  0  0  0  0  0  0  0
   11.2914    6.8033    0.0000 H   0  0  0  0  0  0  0  0  0  0  0  0
    9.2424    7.3523    0.0000 H   0  0  0  0  0  0  0  0  0  0  0  0
   11.0344    4.9743    0.0000 H   0  0  0  0  0  0  0  0  0  0  0  0
   10.3159    4.8569    0.0000 H   0  0  0  0  0  0  0  0  0  0  0  0
    9.7279    1.9664    0.0000 H   0  0  0  0  0  0  0  0  0  0  0  0
   11.7648    4.4687    0.0000 H   0  0  0  0  0  0  0  0  0  0  0  0
   10.9942    1.5925    0.0000 H   0  0  0  0  0  0  0  0  0  0  0  0
   14.1007    2.3015    0.0000 H   0  0  0  0  0  0  0  0  0  0  0  0
   13.0400    4.1386    0.0000 H   0  0  0  0  0  0  0  0  0  0  0  0
   12.2635    1.2408    0.0000 H   0  0  0  0  0  0  0  0  0  0  0  0
    8.5893   -0.1040    0.0000 H   0  0  0  0  0  0  0  0  0  0  0  0
   10.4629    1.5536    0.0000 H   0  0  0  0  0  0  0  0  0  0  0  0
    5.1561    1.2900    0.0000 H   0  0  0  0  0  0  0  0  0  0  0  0
    6.0798    3.4662    0.0000 H   0  0  0  0  0  0  0  0  0  0  0  0
    6.8562    0.5684    0.0000 H   0  0  0  0  0  0  0  0  0  0  0  0
    3.0448   -0.1214    0.0000 H   0  0  0  0  0  0  0  0  0  0  0  0
    1.5113    2.4310    0.0000 H   0  0  0  0  0  0  0  0  0  0  0  0
    2.1213   -1.0607    0.0000 H   0  0  0  0  0  0  0  0  0  0  0  0
   -1.1820   -1.9841    0.0000 H   0  0  0  0  0  0  0  0  0  0  0  0
    2.0046   -0.9556    0.0000 H   0  0  0  0  0  0  0  0  0  0  0  0
    3.7190   -2.4007    0.0000 H   0  0  0  0  0  0  0  0  0  0  0  0
    3.4120   -4.6218    0.0000 H   0  0  0  0  0  0  0  0  0  0  0  0
    1.8519   -5.8851    0.0000 H   0  0  0  0  0  0  0  0  0  0  0  0
    0.6671   -5.9472    0.0000 H   0  0  0  0  0  0  0  0  0  0  0  0
   -1.0164   -4.8539    0.0000 H   0  0  0  0  0  0  0  0  0  0  0  0
   -1.0693   -1.9163    0.0000 H   0  0  0  0  0  0  0  0  0  0  0  0
   -2.6996   -2.9293    0.0000 H   0  0  0  0  0  0  0  0  0  0  0  0
   -3.5702   -0.6724    0.0000 H   0  0  0  0  0  0  0  0  0  0  0  0
   -4.3467    2.2253    0.0000 H   0  0  0  0  0  0  0  0  0  0  0  0
   -1.2032    4.2572    0.0000 H   0  0  0  0  0  0  0  0  0  0  0  0
   -3.0658    3.7581    0.0000 H   0  0  0  0  0  0  0  0  0  0  0  0
   -0.4406    4.0086    0.0000 H   0  0  0  0  0  0  0  0  0  0  0  0
    3.7325    1.7870    0.0000 H   0  0  0  0  0  0  0  0  0  0  0  0
    1.3808    1.6467    0.0000 H   0  0  0  0  0  0  0  0  0  0  0  0
   -0.1996    3.4919    0.0000 H   0  0  0  0  0  0  0  0  0  0  0  0
    1.1687    4.9338    0.0000 H   0  0  0  0  0  0  0  0  0  0  0  0
    0.8110    4.8577    0.0000 H   0  0  0  0  0  0  0  0  0  0  0  0
    1.6126    5.7918    0.0000 H   0  0  0  0  0  0  0  0  0  0  0  0
    3.3880    6.4911    0.0000 H   0  0  0  0  0  0  0  0  0  0  0  0
    4.9257    5.4899    0.0000 H   0  0  0  0  0  0  0  0  0  0  0  0
    5.2853    3.2201    0.0000 H   0  0  0  0  0  0  0  0  0  0  0  0
  1  2  2  3
  2  3  1  0
  3  4  1  0
  4  5  1  0
  5  6  1  0
  6  7  1  0
  7  8  2  3
  8  9  1  0
  9 10  1  0
 10 11  1  0
  6 12  1  0
 12 13  1  0
 13 14  1  0
 14 15  1  0
 14 16  1  0
 16 17  1  1
 17 18  1  0
 18 19  1  0
 16 20  1  0
 20 21  2  3
 20 22  1  0
  4 23  1  0
 23 24  1  0
 24 25  1  0
 25 26  1  0
 26 27  1  0
 27 28  1  0
 28 29  1  0
 29 30  1  0
 30 31  1  0
 31 32  1  0
 26 33  1  0
 33 34  2  0
 34 35  1  0
 35 36  1  0
 36 37  1  0
 37 38  1  0
 38 39  1  0
 37 40  1  0
 23 41  1  0
 41 42  1  0
 41 43  1  0
 43 44  1  0
 11  9  1  0
 16 12  1  0
 40 25  1  0
 44 41  1  0
 31 27  1  0
 40 33  1  0
  1 45  1  0
  1 46  1  0
  2 47  1  0
  3 48  1  0
  3 49  1  0
  4 50  1  6
  5 51  1  0
  5 52  1  0
  6 53  1  6
  7 54  1  0
  8 55  1  0
  9 56  1  0
 10 57  1  0
 10 58  1  0
 11 59  1  0
 11 60  1  0
 12 61  1  1
 13 62  1  0
 13 63  1  0
 15 64  1  0
 15 65  1  0
 15 66  1  0
 17 67  1  0
 17 68  1  0
 18 69  1  0
 18 70  1  0
 19 71  1  0
 19 72  1  0
 19 73  1  0
 21 74  1  0
 21 75  1  0
 22 76  1  0
 22 77  1  0
 22 78  1  0
 24 79  1  0
 24 80  1  0
 25 81  1  6
 26 82  1  6
 27 83  1  1
 28 84  1  0
 29 85  1  0
 29 86  1  0
 30 87  1  0
 30 88  1  0
 31 89  1  1
 32 90  1  0
 34 91  1  0
 35 92  1  0
 36 93  1  0
 36 94  1  0
 37 95  1  1
 39 96  1  0
 40 97  1  1
 42 98  1  0
 42 99  1  0
 42100  1  0
 43101  1  0
 43102  1  0
 44103  1  0
 44104  1  0
M  END
$$$$
