
     RDKit          2D

 66 74  0  0  0  0  0  0  0  0999 V2000
    2.6923   13.2219    0.0000 C   0  0  0  0  0  0  0  0  0  0  0  0
    3.1058   11.7800    0.0000 C   0  0  0  0  0  0  0  0  0  0  0  0
    4.5612   11.4171    0.0000 C   0  0  0  0  0  0  0  0  0  0  0  0
    6.0167   11.0542    0.0000 C   0  0  0  0  0  0  0  0  0  0  0  0
    5.6538    9.5988    0.0000 C   0  0  0  0  0  0  0  0  0  0  0  0
    4.1983    9.9617    0.0000 C   0  0  0  0  0  0  0  0  0  0  0  0
    6.9657    8.8716    0.0000 C   0  0  0  0  0  0  0  0  0  0  0  0
    5.6800    8.0990    0.0000 C   0  0  0  0  0  0  0  0  0  0  0  0
    4.2075    7.8128    0.0000 C   0  0  0  0  0  0  0  0  0  0  0  0
    2.7351    7.5266    0.0000 Br  0  0  0  0  0  0  0  0  0  0  0  0
    6.2175    6.6986    0.0000 C   0  0  0  0  0  0  0  0  0  0  0  0
    7.0345    5.4406    0.0000 C   0  0  0  0  0  0  0  0  0  0  0  0
    6.0905    4.2749    0.0000 C   0  0  0  0  0  0  0  0  0  0  0  0
    4.6901    4.8125    0.0000 C   0  0  0  0  0  0  0  0  0  0  0  0
    4.3019    3.3636    0.0000 S   0  0  0  0  0  0  0  0  0  0  0  0
    2.8530    2.9753    0.0000 C   0  0  0  0  0  0  0  0  0  0  0  0
    1.4041    2.5871    0.0000 C   0  0  0  0  0  0  0  0  0  0  0  0
   -0.0448    2.1989    0.0000 N   0  0  0  0  0  0  0  0  0  0  0  0
   -0.4330    0.7500    0.0000 C   0  0  0  0  0  0  0  0  0  0  0  0
    0.8660    0.0000    0.0000 C   0  0  0  0  0  0  0  0  0  0  0  0
   -0.4330   -0.7500    0.0000 C   0  0  0  0  0  0  0  0  0  0  0  0
   -1.9330   -0.7500    0.0000 C   0  0  0  0  0  0  0  0  0  0  0  0
   -1.9330    0.7500    0.0000 C   0  0  0  0  0  0  0  0  0  0  0  0
   -2.9937   -0.3107    0.0000 C   0  0  0  0  0  0  0  0  0  0  0  0
   -4.2224    0.5497    0.0000 C   0  0  0  0  0  0  0  0  0  0  0  0
   -5.0828   -0.6790    0.0000 C   0  0  0  0  0  0  0  0  0  0  0  0
   -6.3115    0.1813    0.0000 C   0  0  0  0  0  0  0  0  0  0  0  0
   -5.4511    1.4101    0.0000 C   0  0  0  0  0  0  0  0  0  0  0  0
   -1.1830   -2.0490    0.0000 C   0  0  0  0  0  0  0  0  0  0  0  0
    4.7686    6.3104    0.0000 C   0  0  0  0  0  0  0  0  0  0  0  0
    1.2369   13.5848    0.0000 H   0  0  0  0  0  0  0  0  0  0  0  0
    3.7343   14.3009    0.0000 H   0  0  0  0  0  0  0  0  0  0  0  0
    1.9400   10.8360    0.0000 H   0  0  0  0  0  0  0  0  0  0  0  0
    4.9241   12.8725    0.0000 H   0  0  0  0  0  0  0  0  0  0  0  0
    6.3795   12.5097    0.0000 H   0  0  0  0  0  0  0  0  0  0  0  0
    7.5055   10.8715    0.0000 H   0  0  0  0  0  0  0  0  0  0  0  0
    3.7410    9.3087    0.0000 H   0  0  0  0  0  0  0  0  0  0  0  0
    2.7095   10.1444    0.0000 H   0  0  0  0  0  0  0  0  0  0  0  0
    8.0447    9.9135    0.0000 H   0  0  0  0  0  0  0  0  0  0  0  0
    8.0804    7.8679    0.0000 H   0  0  0  0  0  0  0  0  0  0  0  0
    3.7850    8.4888    0.0000 H   0  0  0  0  0  0  0  0  0  0  0  0
    4.1289    6.3149    0.0000 H   0  0  0  0  0  0  0  0  0  0  0  0
    7.6271    7.2116    0.0000 H   0  0  0  0  0  0  0  0  0  0  0  0
    8.2002    6.3846    0.0000 H   0  0  0  0  0  0  0  0  0  0  0  0
    8.0951    4.3800    0.0000 H   0  0  0  0  0  0  0  0  0  0  0  0
    7.3485    3.4580    0.0000 H   0  0  0  0  0  0  0  0  0  0  0  0
    5.4095    2.9384    0.0000 H   0  0  0  0  0  0  0  0  0  0  0  0
    3.2086    5.0471    0.0000 H   0  0  0  0  0  0  0  0  0  0  0  0
    3.2412    1.5265    0.0000 H   0  0  0  0  0  0  0  0  0  0  0  0
    2.4648    4.4242    0.0000 H   0  0  0  0  0  0  0  0  0  0  0  0
    1.9661    1.1964    0.0000 H   0  0  0  0  0  0  0  0  0  0  0  0
    1.0159    4.0360    0.0000 H   0  0  0  0  0  0  0  0  0  0  0  0
   -1.1054    3.2595    0.0000 H   0  0  0  0  0  0  0  0  0  0  0  0
    1.9631    1.0230    0.0000 H   0  0  0  0  0  0  0  0  0  0  0  0
    1.8302   -1.1491    0.0000 H   0  0  0  0  0  0  0  0  0  0  0  0
   -3.2449   -1.4773    0.0000 H   0  0  0  0  0  0  0  0  0  0  0  0
   -3.6276   -1.6701    0.0000 H   0  0  0  0  0  0  0  0  0  0  0  0
   -3.3620    1.7784    0.0000 H   0  0  0  0  0  0  0  0  0  0  0  0
   -5.9431   -1.9078    0.0000 H   0  0  0  0  0  0  0  0  0  0  0  0
   -4.0987   -1.8111    0.0000 H   0  0  0  0  0  0  0  0  0  0  0  0
   -7.5402    1.0417    0.0000 H   0  0  0  0  0  0  0  0  0  0  0  0
   -7.1719   -1.0474    0.0000 H   0  0  0  0  0  0  0  0  0  0  0  0
   -4.5908    2.6388    0.0000 H   0  0  0  0  0  0  0  0  0  0  0  0
   -6.6799    2.2704    0.0000 H   0  0  0  0  0  0  0  0  0  0  0  0
    3.2707    6.2319    0.0000 H   0  0  0  0  0  0  0  0  0  0  0  0
    4.1824    7.6911    0.0000 H   0  0  0  0  0  0  0  0  0  0  0  0
  1  2  2  3
  2  3  1  0
  3  4  1  0
  4  5  1  0
  5  6  1  0
  5  7  1  0
  7  8  1  0
  8  9  1  0
  9 10  1  0
  8 11  1  0
 11 12  1  0
 12 13  1  0
 13 14  1  0
 14 15  1  0
 15 16  1  0
 16 17  1  0
 17 18  1  0
 18 19  1  0
 19 20  1  0
 20 21  1  0
 21 22  1  0
 22 23  1  0
 23 24  1  0
 24 25  1  0
 25 26  1  0
 26 27  1  0
 27 28  1  0
 24 29  1  0
 14 30  1  0
  6  3  1  0
 30 11  1  0
  8  5  1  0
 21 19  1  0
 29 22  1  0
 23 19  1  0
 28 25  1  0
 29 21  1  0
 29 23  1  0
  1 31  1  0
  1 32  1  0
  2 33  1  0
  3 34  1  0
  4 35  1  0
  4 36  1  0
  6 37  1  0
  6 38  1  0
  7 39  1  0
  7 40  1  0
  9 41  1  0
  9 42  1  0
 11 43  1  0
 12 44  1  0
 12 45  1  0
 13 46  1  0
 13 47  1  0
 14 48  1  0
 16 49  1  0
 16 50  1  0
 17 51  1  0
 17 52  1  0
 18 53  1  0
 20 54  1  0
 20 55  1  0
 22 56  1  0
 24 57  1  0
 25 58  1  0
 26 59  1  0
 26 60  1  0
 27 61  1  0
 27 62  1  0
 28 63  1  0
 28 64  1  0
 30 65  1  0
 30 66  1  0
M  END
$$$$
