
     RDKit          2D

 53 58  0  0  0  0  0  0  0  0999 V2000
   -5.0068   -5.7501    0.0000 O   0  0  0  0  0  0  0  0  0  0  0  0
   -5.8672   -4.5213    0.0000 C   0  0  0  0  0  0  0  0  0  0  0  0
   -6.7275   -3.2926    0.0000 N   0  0  0  0  0  0  0  0  0  0  0  0
   -6.0936   -1.9332    0.0000 C   0  0  0  0  0  0  0  0  0  0  0  0
   -6.9540   -0.7044    0.0000 N   0  0  0  0  0  0  0  0  0  0  0  0
   -8.4312   -0.4440    0.0000 C   0  0  0  0  0  0  0  0  0  0  0  0
   -8.1707    1.0333    0.0000 C   0  0  0  0  0  0  0  0  0  0  0  0
   -6.6935    0.7728    0.0000 C   0  0  0  0  0  0  0  0  0  0  0  0
   -6.4330    2.2500    0.0000 C   0  0  0  0  0  0  0  0  0  0  0  0
   -4.9330    2.2500    0.0000 C   0  0  0  0  0  0  0  0  0  0  0  0
   -3.4330    2.2500    0.0000 C   0  0  0  0  0  0  0  0  0  0  0  0
   -1.9330    2.2500    0.0000 C   0  0  0  0  0  0  0  0  0  0  0  0
   -0.4330    2.2500    0.0000 C   0  0  0  0  0  0  0  0  0  0  0  0
    1.0670    2.2500    0.0000 C   0  0  0  0  0  0  0  0  0  0  0  0
    2.4765    2.7630    0.0000 C   0  0  0  0  0  0  0  0  0  0  0  0
    1.3275    3.7272    0.0000 C   0  0  0  0  0  0  0  0  0  0  0  0
   -0.4330    0.7500    0.0000 C   0  0  0  0  0  0  0  0  0  0  0  0
    0.8660    0.0000    0.0000 C   0  0  0  0  0  0  0  0  0  0  0  0
   -0.4330   -0.7500    0.0000 C   0  0  0  0  0  0  0  0  0  0  0  0
   -1.7321   -1.5000    0.0000 C   0  0  0  0  0  0  0  0  0  0  0  0
   -1.7321    0.0000    0.0000 C   0  0  0  0  0  0  0  0  0  0  0  0
   -7.8426    2.7630    0.0000 C   0  0  0  0  0  0  0  0  0  0  0  0
   -6.6935    3.7272    0.0000 C   0  0  0  0  0  0  0  0  0  0  0  0
   -3.5125   -5.6193    0.0000 H   0  0  0  0  0  0  0  0  0  0  0  0
   -7.0959   -5.3817    0.0000 H   0  0  0  0  0  0  0  0  0  0  0  0
   -4.6384   -3.6610    0.0000 H   0  0  0  0  0  0  0  0  0  0  0  0
   -4.5993   -1.8024    0.0000 H   0  0  0  0  0  0  0  0  0  0  0  0
   -8.6916   -1.9212    0.0000 H   0  0  0  0  0  0  0  0  0  0  0  0
   -9.9084   -0.1835    0.0000 H   0  0  0  0  0  0  0  0  0  0  0  0
   -9.6479    1.2937    0.0000 H   0  0  0  0  0  0  0  0  0  0  0  0
   -8.2394    2.0150    0.0000 H   0  0  0  0  0  0  0  0  0  0  0  0
   -5.5316    0.4175    0.0000 H   0  0  0  0  0  0  0  0  0  0  0  0
   -4.7849    1.0441    0.0000 H   0  0  0  0  0  0  0  0  0  0  0  0
   -4.7502    3.7388    0.0000 H   0  0  0  0  0  0  0  0  0  0  0  0
   -3.6159    0.7612    0.0000 H   0  0  0  0  0  0  0  0  0  0  0  0
   -3.4330    3.7500    0.0000 H   0  0  0  0  0  0  0  0  0  0  0  0
   -2.2960    0.7946    0.0000 H   0  0  0  0  0  0  0  0  0  0  0  0
   -1.9330    3.7500    0.0000 H   0  0  0  0  0  0  0  0  0  0  0  0
   -0.5976    3.5899    0.0000 H   0  0  0  0  0  0  0  0  0  0  0  0
    1.3001    1.4877    0.0000 H   0  0  0  0  0  0  0  0  0  0  0  0
    3.2265    1.4640    0.0000 H   0  0  0  0  0  0  0  0  0  0  0  0
    3.6256    3.7272    0.0000 H   0  0  0  0  0  0  0  0  0  0  0  0
    2.0775    5.0262    0.0000 H   0  0  0  0  0  0  0  0  0  0  0  0
    0.1246    4.3401    0.0000 H   0  0  0  0  0  0  0  0  0  0  0  0
    1.4490    0.5436    0.0000 H   0  0  0  0  0  0  0  0  0  0  0  0
    1.8302   -1.1491    0.0000 H   0  0  0  0  0  0  0  0  0  0  0  0
   -1.2190   -2.9095    0.0000 H   0  0  0  0  0  0  0  0  0  0  0  0
   -3.2093   -1.7605    0.0000 H   0  0  0  0  0  0  0  0  0  0  0  0
   -3.1128    0.5861    0.0000 H   0  0  0  0  0  0  0  0  0  0  0  0
   -8.8846    1.6841    0.0000 H   0  0  0  0  0  0  0  0  0  0  0  0
   -8.9916    3.7272    0.0000 H   0  0  0  0  0  0  0  0  0  0  0  0
   -7.4435    5.0262    0.0000 H   0  0  0  0  0  0  0  0  0  0  0  0
   -5.3570    4.4082    0.0000 H   0  0  0  0  0  0  0  0  0  0  0  0
  1  2  1  0
  2  3  1  0
  3  4  2  3
  4  5  1  0
  5  6  1  0
  6  7  1  0
  7  8  1  0
  8  9  1  0
  9 10  1  0
 10 11  1  0
 11 12  1  0
 12 13  1  0
 13 14  1  0
 14 15  1  0
 15 16  1  0
 13 17  1  0
 17 18  1  6
 19 18  1  1
 19 20  1  0
 20 21  1  0
  9 22  1  0
 22 23  1  0
  8  5  1  0
 23  9  1  0
 16 14  1  0
 19 17  1  0
 21 17  1  0
 21 19  1  0
  1 24  1  0
  2 25  1  0
  2 26  1  0
  4 27  1  0
  6 28  1  0
  6 29  1  0
  7 30  1  0
  7 31  1  0
  8 32  1  1
 10 33  1  0
 10 34  1  0
 11 35  1  0
 11 36  1  0
 12 37  1  0
 12 38  1  0
 13 39  1  6
 14 40  1  0
 15 41  1  0
 15 42  1  0
 16 43  1  0
 16 44  1  0
 18 45  1  0
 18 46  1  0
 20 47  1  0
 20 48  1  0
 21 49  1  1
 22 50  1  0
 22 51  1  0
 23 52  1  0
 23 53  1  0
M  END
$$$$
