
     RDKit          2D

 41 45  0  0  0  0  0  0  0  0999 V2000
   -2.2449    6.7172    0.0000 C   0  0  0  0  0  0  0  0  0  0  0  0
   -0.7449    6.7172    0.0000 C   0  0  0  0  0  0  0  0  0  0  0  0
    0.7551    6.7172    0.0000 C   0  0  0  0  0  0  0  0  0  0  0  0
    2.2551    6.7172    0.0000 C   0  0  0  0  0  0  0  0  0  0  0  0
    3.6647    7.2303    0.0000 C   0  0  0  0  0  0  0  0  0  0  0  0
    2.5156    8.1944    0.0000 C   0  0  0  0  0  0  0  0  0  0  0  0
   -0.7449    5.2172    0.0000 C   0  0  0  0  0  0  0  0  0  0  0  0
   -0.7449    3.7172    0.0000 C   0  0  0  0  0  0  0  0  0  0  0  0
   -0.4330    2.2500    0.0000 C   0  0  0  0  0  0  0  0  0  0  0  0
   -1.7321    1.5000    0.0000 C   0  0  0  0  0  0  0  0  0  0  0  0
   -2.8468    2.5037    0.0000 C   0  0  0  0  0  0  0  0  0  0  0  0
   -2.2367    3.8740    0.0000 C   0  0  0  0  0  0  0  0  0  0  0  0
   -3.5357    4.6240    0.0000 C   0  0  0  0  0  0  0  0  0  0  0  0
   -2.2367    5.3740    0.0000 C   0  0  0  0  0  0  0  0  0  0  0  0
   -0.4330    0.7500    0.0000 C   0  0  0  0  0  0  0  0  0  0  0  0
    0.8660    0.0000    0.0000 C   0  0  0  0  0  0  0  0  0  0  0  0
   -0.4330   -0.7500    0.0000 O   0  0  0  0  0  0  0  0  0  0  0  0
   -3.7449    6.7172    0.0000 H   0  0  0  0  0  0  0  0  0  0  0  0
   -2.1477    7.5084    0.0000 H   0  0  0  0  0  0  0  0  0  0  0  0
   -2.3421    7.5084    0.0000 H   0  0  0  0  0  0  0  0  0  0  0  0
   -0.7449    8.2172    0.0000 H   0  0  0  0  0  0  0  0  0  0  0  0
    0.5723    8.2060    0.0000 H   0  0  0  0  0  0  0  0  0  0  0  0
    0.9380    5.2284    0.0000 H   0  0  0  0  0  0  0  0  0  0  0  0
    2.5156    5.2400    0.0000 H   0  0  0  0  0  0  0  0  0  0  0  0
    4.4147    5.9312    0.0000 H   0  0  0  0  0  0  0  0  0  0  0  0
    4.8137    8.1944    0.0000 H   0  0  0  0  0  0  0  0  0  0  0  0
    3.2656    9.4935    0.0000 H   0  0  0  0  0  0  0  0  0  0  0  0
    1.1791    8.8755    0.0000 H   0  0  0  0  0  0  0  0  0  0  0  0
   -2.2003    5.5802    0.0000 H   0  0  0  0  0  0  0  0  0  0  0  0
    0.7439    5.0344    0.0000 H   0  0  0  0  0  0  0  0  0  0  0  0
    0.7469    3.8740    0.0000 H   0  0  0  0  0  0  0  0  0  0  0  0
    1.0588    2.4068    0.0000 H   0  0  0  0  0  0  0  0  0  0  0  0
   -2.6137    0.2865    0.0000 H   0  0  0  0  0  0  0  0  0  0  0  0
   -3.7284    1.2902    0.0000 H   0  0  0  0  0  0  0  0  0  0  0  0
   -4.2275    3.0898    0.0000 H   0  0  0  0  0  0  0  0  0  0  0  0
   -4.6328    3.6010    0.0000 H   0  0  0  0  0  0  0  0  0  0  0  0
   -4.4999    5.7731    0.0000 H   0  0  0  0  0  0  0  0  0  0  0  0
   -3.0755    6.6175    0.0000 H   0  0  0  0  0  0  0  0  0  0  0  0
   -0.8664    5.9842    0.0000 H   0  0  0  0  0  0  0  0  0  0  0  0
    1.8302    1.1491    0.0000 H   0  0  0  0  0  0  0  0  0  0  0  0
    1.8302   -1.1491    0.0000 H   0  0  0  0  0  0  0  0  0  0  0  0
  1  2  1  0
  2  3  1  0
  3  4  1  0
  4  5  1  0
  5  6  1  0
  2  7  1  0
  7  8  1  0
  8  9  1  0
  9 10  1  0
 10 11  1  0
 11 12  1  0
 12 13  1  0
 13 14  1  0
 10 15  1  0
 15 16  1  0
 16 17  1  0
  6  4  1  0
 12  8  1  0
 15 17  1  6
 15  9  1  0
 14 12  1  0
  1 18  1  0
  1 19  1  0
  1 20  1  0
  2 21  1  1
  3 22  1  0
  3 23  1  0
  4 24  1  0
  5 25  1  0
  5 26  1  0
  6 27  1  0
  6 28  1  0
  7 29  1  0
  7 30  1  0
  8 31  1  1
  9 32  1  1
 10 33  1  1
 11 34  1  0
 11 35  1  0
 13 36  1  0
 13 37  1  0
 14 38  1  0
 14 39  1  0
 16 40  1  0
 16 41  1  0
M  END
$$$$
