
     RDKit          2D

 77 82  0  0  0  0  0  0  0  0999 V2000
  -10.3301   -6.0000    0.0000 C   0  0  0  0  0  0  0  0  0  0  0  0
   -9.0311   -5.2500    0.0000 C   0  0  0  0  0  0  0  0  0  0  0  0
   -7.7321   -4.5000    0.0000 C   0  0  0  0  0  0  0  0  0  0  0  0
   -6.4330   -3.7500    0.0000 N   0  0  0  0  0  0  0  0  0  0  0  0
   -6.4330   -2.2500    0.0000 C   0  0  0  0  0  0  0  0  0  0  0  0
   -6.4330   -0.7500    0.0000 C   0  0  0  0  0  0  0  0  0  0  0  0
   -6.4330    0.7500    0.0000 C   0  0  0  0  0  0  0  0  0  0  0  0
   -6.4330    2.2500    0.0000 O   0  0  0  0  0  0  0  0  0  0  0  0
   -4.9330   -0.7500    0.0000 C   0  0  0  0  0  0  0  0  0  0  0  0
   -3.4330   -0.7500    0.0000 C   0  0  0  0  0  0  0  0  0  0  0  0
   -1.9330   -0.7500    0.0000 C   0  0  0  0  0  0  0  0  0  0  0  0
   -1.9330    0.7500    0.0000 C   0  0  0  0  0  0  0  0  0  0  0  0
   -0.4330    0.7500    0.0000 C   0  0  0  0  0  0  0  0  0  0  0  0
    0.8660    0.0000    0.0000 C   0  0  0  0  0  0  0  0  0  0  0  0
    1.8302    1.1491    0.0000 C   0  0  0  0  0  0  0  0  0  0  0  0
    2.7944    2.2981    0.0000 C   0  0  0  0  0  0  0  0  0  0  0  0
    3.7586    3.4472    0.0000 C   0  0  0  0  0  0  0  0  0  0  0  0
   -0.4330   -0.7500    0.0000 C   0  0  0  0  0  0  0  0  0  0  0  0
   -3.4330    0.7500    0.0000 C   0  0  0  0  0  0  0  0  0  0  0  0
   -4.9102    1.0105    0.0000 C   0  0  0  0  0  0  0  0  0  0  0  0
   -6.2093    1.7605    0.0000 C   0  0  0  0  0  0  0  0  0  0  0  0
   -4.9102    2.5105    0.0000 C   0  0  0  0  0  0  0  0  0  0  0  0
   -1.9558    1.0105    0.0000 C   0  0  0  0  0  0  0  0  0  0  0  0
   -0.9916   -0.1386    0.0000 C   0  0  0  0  0  0  0  0  0  0  0  0
   -0.0274   -1.2877    0.0000 C   0  0  0  0  0  0  0  0  0  0  0  0
    0.4267    0.3496    0.0000 F   0  0  0  0  0  0  0  0  0  0  0  0
   -1.4428    2.4200    0.0000 C   0  0  0  0  0  0  0  0  0  0  0  0
    0.0344    2.6805    0.0000 C   0  0  0  0  0  0  0  0  0  0  0  0
   -2.4070    3.5691    0.0000 C   0  0  0  0  0  0  0  0  0  0  0  0
   -1.4428    4.7181    0.0000 C   0  0  0  0  0  0  0  0  0  0  0  0
   -2.9200    2.1595    0.0000 C   0  0  0  0  0  0  0  0  0  0  0  0
  -11.6292   -6.7500    0.0000 H   0  0  0  0  0  0  0  0  0  0  0  0
   -9.5801   -7.2990    0.0000 H   0  0  0  0  0  0  0  0  0  0  0  0
  -11.0801   -4.7010    0.0000 H   0  0  0  0  0  0  0  0  0  0  0  0
   -8.2811   -6.5490    0.0000 H   0  0  0  0  0  0  0  0  0  0  0  0
   -9.7811   -3.9510    0.0000 H   0  0  0  0  0  0  0  0  0  0  0  0
   -8.4821   -3.2010    0.0000 H   0  0  0  0  0  0  0  0  0  0  0  0
   -6.9821   -5.7990    0.0000 H   0  0  0  0  0  0  0  0  0  0  0  0
   -5.1340   -4.5000    0.0000 H   0  0  0  0  0  0  0  0  0  0  0  0
   -7.9218   -2.0672    0.0000 H   0  0  0  0  0  0  0  0  0  0  0  0
   -7.9218   -2.4328    0.0000 H   0  0  0  0  0  0  0  0  0  0  0  0
   -7.9330   -0.7500    0.0000 H   0  0  0  0  0  0  0  0  0  0  0  0
   -5.0327    1.2877    0.0000 H   0  0  0  0  0  0  0  0  0  0  0  0
   -7.9218    0.5672    0.0000 H   0  0  0  0  0  0  0  0  0  0  0  0
   -5.3541    3.2920    0.0000 H   0  0  0  0  0  0  0  0  0  0  0  0
   -5.1159    0.7388    0.0000 H   0  0  0  0  0  0  0  0  0  0  0  0
   -4.9330   -2.2500    0.0000 H   0  0  0  0  0  0  0  0  0  0  0  0
   -3.4330   -2.2500    0.0000 H   0  0  0  0  0  0  0  0  0  0  0  0
   -2.1159   -2.2388    0.0000 H   0  0  0  0  0  0  0  0  0  0  0  0
   -1.5701    2.2054    0.0000 H   0  0  0  0  0  0  0  0  0  0  0  0
   -3.3884    1.1130    0.0000 H   0  0  0  0  0  0  0  0  0  0  0  0
    0.1289    2.1408    0.0000 H   0  0  0  0  0  0  0  0  0  0  0  0
    1.8302   -1.1491    0.0000 H   0  0  0  0  0  0  0  0  0  0  0  0
    2.9793    0.1849    0.0000 H   0  0  0  0  0  0  0  0  0  0  0  0
    0.8072    2.2461    0.0000 H   0  0  0  0  0  0  0  0  0  0  0  0
    3.9435    1.3340    0.0000 H   0  0  0  0  0  0  0  0  0  0  0  0
    1.7714    3.3952    0.0000 H   0  0  0  0  0  0  0  0  0  0  0  0
    4.7228    4.5963    0.0000 H   0  0  0  0  0  0  0  0  0  0  0  0
    2.6095    4.4114    0.0000 H   0  0  0  0  0  0  0  0  0  0  0  0
    4.9076    2.4830    0.0000 H   0  0  0  0  0  0  0  0  0  0  0  0
   -0.0448   -2.1989    0.0000 H   0  0  0  0  0  0  0  0  0  0  0  0
   -5.7491   -0.2330    0.0000 H   0  0  0  0  0  0  0  0  0  0  0  0
   -7.5213    1.0334    0.0000 H   0  0  0  0  0  0  0  0  0  0  0  0
   -7.1734    2.9095    0.0000 H   0  0  0  0  0  0  0  0  0  0  0  0
   -5.4233    3.9200    0.0000 H   0  0  0  0  0  0  0  0  0  0  0  0
   -3.4330    2.7709    0.0000 H   0  0  0  0  0  0  0  0  0  0  0  0
   -1.8732   -1.3522    0.0000 H   0  0  0  0  0  0  0  0  0  0  0  0
    0.9367   -2.4367    0.0000 H   0  0  0  0  0  0  0  0  0  0  0  0
    1.3208   -0.6302    0.0000 H   0  0  0  0  0  0  0  0  0  0  0  0
   -1.0504   -2.3847    0.0000 H   0  0  0  0  0  0  0  0  0  0  0  0
    1.4689    3.1191    0.0000 H   0  0  0  0  0  0  0  0  0  0  0  0
   -0.0440    4.1784    0.0000 H   0  0  0  0  0  0  0  0  0  0  0  0
    0.4730    1.2460    0.0000 H   0  0  0  0  0  0  0  0  0  0  0  0
   -3.7060    4.3191    0.0000 H   0  0  0  0  0  0  0  0  0  0  0  0
   -0.4786    5.8672    0.0000 H   0  0  0  0  0  0  0  0  0  0  0  0
   -2.5918    5.6823    0.0000 H   0  0  0  0  0  0  0  0  0  0  0  0
   -0.1847    3.9012    0.0000 H   0  0  0  0  0  0  0  0  0  0  0  0
  1  2  1  0
  2  3  1  0
  3  4  1  0
  4  5  1  0
  5  6  1  0
  6  7  1  0
  7  8  1  0
  6  9  1  0
  9 10  1  0
 10 11  1  0
 11 12  1  0
 12 13  1  0
 13 14  1  0
 14 15  1  0
 15 16  1  0
 16 17  1  0
 14 18  1  0
 10 19  1  0
 19 20  1  0
 20 21  1  0
 21 22  1  0
 19 23  1  0
 23 24  1  0
 24 25  1  0
 24 26  1  0
 23 27  1  0
 27 28  1  0
 27 29  1  0
 29 30  1  0
 29 31  1  0
 18 11  1  0
 31 19  1  0
 18 13  1  0
 22 20  1  0
 31 23  1  0
 31 27  1  0
  1 32  1  0
  1 33  1  0
  1 34  1  0
  2 35  1  0
  2 36  1  0
  3 37  1  0
  3 38  1  0
  4 39  1  0
  5 40  1  0
  5 41  1  0
  6 42  1  0
  7 43  1  0
  7 44  1  0
  8 45  1  0
  9 46  1  0
  9 47  1  0
 10 48  1  0
 11 49  1  0
 12 50  1  0
 12 51  1  0
 13 52  1  0
 14 53  1  0
 15 54  1  0
 15 55  1  0
 16 56  1  0
 16 57  1  0
 17 58  1  0
 17 59  1  0
 17 60  1  0
 18 61  1  0
 20 62  1  0
 21 63  1  0
 21 64  1  0
 22 65  1  0
 22 66  1  0
 24 67  1  0
 25 68  1  0
 25 69  1  0
 25 70  1  0
 28 71  1  0
 28 72  1  0
 28 73  1  0
 29 74  1  0
 30 75  1  0
 30 76  1  0
 30 77  1  0
M  END
$$$$
