
     RDKit          2D

 59 65  0  0  0  0  0  0  0  0999 V2000
   -0.9762    5.9177    0.0000 C   0  0  0  0  0  0  0  0  0  0  0  0
   -0.0945    4.7042    0.0000 C   0  0  0  0  0  0  0  0  0  0  0  0
    0.7872    3.4906    0.0000 N   0  0  0  0  0  0  0  0  0  0  0  0
    2.2790    3.6474    0.0000 P   0  0  0  0  0  0  0  0  0  0  0  0
    2.8891    5.0177    0.0000 C   0  0  0  0  0  0  0  0  0  0  0  0
    1.8476    5.6435    0.0000 Cl  0  0  0  0  0  0  0  0  0  0  0  0
    3.4992    6.3881    0.0000 C   0  0  0  0  0  0  0  0  0  0  0  0
    4.1093    7.7584    0.0000 C   0  0  0  0  0  0  0  0  0  0  0  0
    4.7194    9.1287    0.0000 C   0  0  0  0  0  0  0  0  0  0  0  0
    5.3295   10.4990    0.0000 C   0  0  0  0  0  0  0  0  0  0  0  0
    5.9396   11.8693    0.0000 C   0  0  0  0  0  0  0  0  0  0  0  0
    6.5497   13.2397    0.0000 N   0  0  0  0  0  0  0  0  0  0  0  0
    6.0897    8.5186    0.0000 C   0  0  0  0  0  0  0  0  0  0  0  0
    6.9285    9.7622    0.0000 C   0  0  0  0  0  0  0  0  0  0  0  0
    8.4249    9.6575    0.0000 C   0  0  0  0  0  0  0  0  0  0  0  0
    7.5861    8.4140    0.0000 C   0  0  0  0  0  0  0  0  0  0  0  0
    8.2436    7.0658    0.0000 C   0  0  0  0  0  0  0  0  0  0  0  0
    0.1771    2.1203    0.0000 C   0  0  0  0  0  0  0  0  0  0  0  0
    1.5474    1.5102    0.0000 N   0  0  0  0  0  0  0  0  0  0  0  0
   -1.1932    2.7304    0.0000 Cl  0  0  0  0  0  0  0  0  0  0  0  0
   -0.4330    0.7500    0.0000 C   0  0  0  0  0  0  0  0  0  0  0  0
    0.8660   -0.0000    0.0000 N   0  0  0  0  0  0  0  0  0  0  0  0
   -0.4330   -0.7500    0.0000 C   0  0  0  0  0  0  0  0  0  0  0  0
   -1.8596   -1.2135    0.0000 N   0  0  0  0  0  0  0  0  0  0  0  0
   -2.7413    0.0000    0.0000 C   0  0  0  0  0  0  0  0  0  0  0  0
   -3.3514    1.3703    0.0000 C   0  0  0  0  0  0  0  0  0  0  0  0
   -4.2331    0.1568    0.0000 N   0  0  0  0  0  0  0  0  0  0  0  0
   -1.8596    1.2135    0.0000 C   0  0  0  0  0  0  0  0  0  0  0  0
   -1.8578    7.1312    0.0000 H   0  0  0  0  0  0  0  0  0  0  0  0
    0.2374    6.7994    0.0000 H   0  0  0  0  0  0  0  0  0  0  0  0
   -2.1897    5.0360    0.0000 H   0  0  0  0  0  0  0  0  0  0  0  0
    0.7941    5.5328    0.0000 H   0  0  0  0  0  0  0  0  0  0  0  0
   -1.3080    3.8225    0.0000 H   0  0  0  0  0  0  0  0  0  0  0  0
    3.3020    2.5504    0.0000 H   0  0  0  0  0  0  0  0  0  0  0  0
    4.2594    4.4076    0.0000 H   0  0  0  0  0  0  0  0  0  0  0  0
    4.8695    5.7780    0.0000 H   0  0  0  0  0  0  0  0  0  0  0  0
    2.1289    6.9982    0.0000 H   0  0  0  0  0  0  0  0  0  0  0  0
    2.7390    8.3685    0.0000 H   0  0  0  0  0  0  0  0  0  0  0  0
    5.0466    7.1952    0.0000 H   0  0  0  0  0  0  0  0  0  0  0  0
    3.3491    9.7388    0.0000 H   0  0  0  0  0  0  0  0  0  0  0  0
    3.9592   11.1091    0.0000 H   0  0  0  0  0  0  0  0  0  0  0  0
    6.1146   10.3606    0.0000 H   0  0  0  0  0  0  0  0  0  0  0  0
    4.5693   12.4794    0.0000 H   0  0  0  0  0  0  0  0  0  0  0  0
    7.3099   11.2592    0.0000 H   0  0  0  0  0  0  0  0  0  0  0  0
    5.6680   14.4532    0.0000 H   0  0  0  0  0  0  0  0  0  0  0  0
    8.0415   13.3964    0.0000 H   0  0  0  0  0  0  0  0  0  0  0  0
    5.9565    7.4332    0.0000 H   0  0  0  0  0  0  0  0  0  0  0  0
    6.3959   10.8542    0.0000 H   0  0  0  0  0  0  0  0  0  0  0  0
    8.7877   11.1130    0.0000 H   0  0  0  0  0  0  0  0  0  0  0  0
    9.7952    9.0474    0.0000 H   0  0  0  0  0  0  0  0  0  0  0  0
    8.9012    5.7176    0.0000 H   0  0  0  0  0  0  0  0  0  0  0  0
    9.5918    7.7233    0.0000 H   0  0  0  0  0  0  0  0  0  0  0  0
    6.8954    6.4082    0.0000 H   0  0  0  0  0  0  0  0  0  0  0  0
    2.8594    2.2374    0.0000 H   0  0  0  0  0  0  0  0  0  0  0  0
    2.2285    0.1738    0.0000 H   0  0  0  0  0  0  0  0  0  0  0  0
    2.3548   -0.1828    0.0000 H   0  0  0  0  0  0  0  0  0  0  0  0
    0.1771   -2.1203    0.0000 H   0  0  0  0  0  0  0  0  0  0  0  0
   -2.3231   -2.6401    0.0000 H   0  0  0  0  0  0  0  0  0  0  0  0
   -3.9615    2.7406    0.0000 H   0  0  0  0  0  0  0  0  0  0  0  0
  1  2  1  0
  2  3  1  0
  3  4  1  0
  4  5  1  0
  5  6  1  0
  5  7  1  0
  7  8  1  0
  8  9  1  0
  9 10  1  0
 10 11  1  0
 11 12  1  0
  9 13  1  0
 13 14  1  0
 14 15  1  0
 15 16  1  0
 16 17  1  0
  3 18  1  0
 18 19  1  0
 18 20  1  0
 18 21  1  0
 21 22  1  0
 22 23  1  0
 23 24  1  0
 24 25  1  0
 25 26  1  0
 26 27  1  0
 27 28  1  0
 16 13  1  0
 23 21  1  0
 27 25  1  0
 16 14  1  0
 28 21  1  0
 28 25  1  0
 28 26  1  0
  1 29  1  0
  1 30  1  0
  1 31  1  0
  2 32  1  0
  2 33  1  0
  4 34  1  0
  5 35  1  0
  7 36  1  0
  7 37  1  0
  8 38  1  0
  8 39  1  0
  9 40  1  0
 10 41  1  0
 10 42  1  0
 11 43  1  0
 11 44  1  0
 12 45  1  0
 12 46  1  0
 13 47  1  0
 14 48  1  0
 15 49  1  0
 15 50  1  0
 17 51  1  0
 17 52  1  0
 17 53  1  0
 19 54  1  0
 19 55  1  0
 22 56  1  0
 23 57  1  0
 24 58  1  0
 26 59  1  0
M  END
$$$$
