
     RDKit          2D

105113  0  0  0  0  0  0  0  0999 V2000
    0.1972   -6.3184    0.0000 C   0  0  0  0  0  0  0  0  0  0  0  0
   -0.9518   -5.3542    0.0000 C   0  0  0  0  0  0  0  0  0  0  0  0
   -2.3614   -5.8672    0.0000 C   0  0  0  0  0  0  0  0  0  0  0  0
   -2.8744   -4.4577    0.0000 O   0  0  0  0  0  0  0  0  0  0  0  0
   -1.9102   -3.3086    0.0000 C   0  0  0  0  0  0  0  0  0  0  0  0
   -2.8744   -2.1595    0.0000 C   0  0  0  0  0  0  0  0  0  0  0  0
   -1.3972   -1.8991    0.0000 C   0  0  0  0  0  0  0  0  0  0  0  0
   -2.0867   -0.7357    0.0000 C   0  0  0  0  0  0  0  0  0  0  0  0
    0.0052   -0.6614    0.0000 C   0  0  0  0  0  0  0  0  0  0  0  0
    1.4825   -0.9219    0.0000 N   0  0  0  0  0  0  0  0  0  0  0  0
    1.9955   -2.3314    0.0000 C   0  0  0  0  0  0  0  0  0  0  0  0
   -2.8114   -0.2147    0.0000 C   0  0  0  0  0  0  0  0  0  0  0  0
   -4.1965   -0.6288    0.0000 C   0  0  0  0  0  0  0  0  0  0  0  0
   -5.6507   -1.1491    0.0000 C   0  0  0  0  0  0  0  0  0  0  0  0
   -4.6865    0.0000    0.0000 C   0  0  0  0  0  0  0  0  0  0  0  0
   -5.9855    0.7500    0.0000 C   0  0  0  0  0  0  0  0  0  0  0  0
   -4.1734    1.4095    0.0000 C   0  0  0  0  0  0  0  0  0  0  0  0
   -2.8744    2.1595    0.0000 C   0  0  0  0  0  0  0  0  0  0  0  0
   -1.3972    1.8991    0.0000 C   0  0  0  0  0  0  0  0  0  0  0  0
   -0.4330    0.7500    0.0000 C   0  0  0  0  0  0  0  0  0  0  0  0
    0.8660    0.0000    0.0000 C   0  0  0  0  0  0  0  0  0  0  0  0
    1.8302    1.1491    0.0000 C   0  0  0  0  0  0  0  0  0  0  0  0
    2.7944    2.2981    0.0000 C   0  0  0  0  0  0  0  0  0  0  0  0
    1.6453    3.2623    0.0000 C   0  0  0  0  0  0  0  0  0  0  0  0
    3.9435    1.3340    0.0000 C   0  0  0  0  0  0  0  0  0  0  0  0
    3.7586    3.4472    0.0000 C   0  0  0  0  0  0  0  0  0  0  0  0
    3.2455    4.8567    0.0000 C   0  0  0  0  0  0  0  0  0  0  0  0
   -0.4330   -0.7500    0.0000 C   0  0  0  0  0  0  0  0  0  0  0  0
   -2.3614    0.7500    0.0000 C   0  0  0  0  0  0  0  0  0  0  0  0
   -2.8744   -0.6595    0.0000 C   0  0  0  0  0  0  0  0  0  0  0  0
   -1.3769   -0.7468    0.0000 C   0  0  0  0  0  0  0  0  0  0  0  0
    0.1205   -0.8340    0.0000 C   0  0  0  0  0  0  0  0  0  0  0  0
    1.6180   -0.9212    0.0000 N   0  0  0  0  0  0  0  0  0  0  0  0
   -4.1734   -1.4095    0.0000 C   0  0  0  0  0  0  0  0  0  0  0  0
   -3.7709   -6.3802    0.0000 C   0  0  0  0  0  0  0  0  0  0  0  0
   -3.0209   -7.6793    0.0000 C   0  0  0  0  0  0  0  0  0  0  0  0
   -3.7709   -8.9783    0.0000 C   0  0  0  0  0  0  0  0  0  0  0  0
   -5.2709   -8.9783    0.0000 C   0  0  0  0  0  0  0  0  0  0  0  0
   -6.0209   -7.6793    0.0000 N   0  0  0  0  0  0  0  0  0  0  0  0
   -6.7709   -6.3802    0.0000 C   0  0  0  0  0  0  0  0  0  0  0  0
   -5.9768   -5.1077    0.0000 C   0  0  0  0  0  0  0  0  0  0  0  0
   -4.4868   -4.9351    0.0000 C   0  0  0  0  0  0  0  0  0  0  0  0
   -3.4228   -5.9924    0.0000 S   0  0  0  0  0  0  0  0  0  0  0  0
   -5.2709   -6.3802    0.0000 C   0  0  0  0  0  0  0  0  0  0  0  0
    1.6068   -5.8053    0.0000 H   0  0  0  0  0  0  0  0  0  0  0  0
   -0.0632   -7.7956    0.0000 H   0  0  0  0  0  0  0  0  0  0  0  0
   -0.5132   -3.9197    0.0000 H   0  0  0  0  0  0  0  0  0  0  0  0
   -1.6804   -7.2037    0.0000 H   0  0  0  0  0  0  0  0  0  0  0  0
   -0.5295   -3.8947    0.0000 H   0  0  0  0  0  0  0  0  0  0  0  0
   -3.8386   -3.3086    0.0000 H   0  0  0  0  0  0  0  0  0  0  0  0
   -1.0621    1.0420    0.0000 H   0  0  0  0  0  0  0  0  0  0  0  0
    0.4438    0.7730    0.0000 H   0  0  0  0  0  0  0  0  0  0  0  0
   -0.2552   -2.1386    0.0000 H   0  0  0  0  0  0  0  0  0  0  0  0
    2.5795    0.1011    0.0000 H   0  0  0  0  0  0  0  0  0  0  0  0
    2.5085   -3.7410    0.0000 H   0  0  0  0  0  0  0  0  0  0  0  0
    3.4050   -1.8184    0.0000 H   0  0  0  0  0  0  0  0  0  0  0  0
    0.6590   -3.0124    0.0000 H   0  0  0  0  0  0  0  0  0  0  0  0
   -1.9957    1.8044    0.0000 H   0  0  0  0  0  0  0  0  0  0  0  0
   -2.8874    1.9616    0.0000 H   0  0  0  0  0  0  0  0  0  0  0  0
   -4.0254    1.5645    0.0000 H   0  0  0  0  0  0  0  0  0  0  0  0
   -5.5041    0.6786    0.0000 H   0  0  0  0  0  0  0  0  0  0  0  0
   -7.0602   -1.6621    0.0000 H   0  0  0  0  0  0  0  0  0  0  0  0
   -7.2846    1.5000    0.0000 H   0  0  0  0  0  0  0  0  0  0  0  0
   -6.7355   -0.5490    0.0000 H   0  0  0  0  0  0  0  0  0  0  0  0
   -5.3995    2.1308    0.0000 H   0  0  0  0  0  0  0  0  0  0  0  0
   -5.6491    1.6786    0.0000 H   0  0  0  0  0  0  0  0  0  0  0  0
   -4.5194    2.8691    0.0000 H   0  0  0  0  0  0  0  0  0  0  0  0
   -3.1349    3.6368    0.0000 H   0  0  0  0  0  0  0  0  0  0  0  0
   -1.5713    3.3889    0.0000 H   0  0  0  0  0  0  0  0  0  0  0  0
   -0.2046    2.8088    0.0000 H   0  0  0  0  0  0  0  0  0  0  0  0
    0.5312    1.8991    0.0000 H   0  0  0  0  0  0  0  0  0  0  0  0
    2.2569   -0.5618    0.0000 H   0  0  0  0  0  0  0  0  0  0  0  0
    3.0882    0.3321    0.0000 H   0  0  0  0  0  0  0  0  0  0  0  0
    0.9486    2.3626    0.0000 H   0  0  0  0  0  0  0  0  0  0  0  0
    0.4963    4.2265    0.0000 H   0  0  0  0  0  0  0  0  0  0  0  0
    2.4622    4.5203    0.0000 H   0  0  0  0  0  0  0  0  0  0  0  0
    2.1336    4.6806    0.0000 H   0  0  0  0  0  0  0  0  0  0  0  0
    5.0925    0.3698    0.0000 H   0  0  0  0  0  0  0  0  0  0  0  0
    5.0405    2.3569    0.0000 H   0  0  0  0  0  0  0  0  0  0  0  0
    3.4552   -0.0844    0.0000 H   0  0  0  0  0  0  0  0  0  0  0  0
    5.2565    3.3687    0.0000 H   0  0  0  0  0  0  0  0  0  0  0  0
    4.2097    6.0058    0.0000 H   0  0  0  0  0  0  0  0  0  0  0  0
    1.7683    5.1172    0.0000 H   0  0  0  0  0  0  0  0  0  0  0  0
    0.2245   -2.0982    0.0000 H   0  0  0  0  0  0  0  0  0  0  0  0
   -1.2763    1.7857    0.0000 H   0  0  0  0  0  0  0  0  0  0  0  0
   -0.8620    0.7066    0.0000 H   0  0  0  0  0  0  0  0  0  0  0  0
   -2.1856   -1.9920    0.0000 H   0  0  0  0  0  0  0  0  0  0  0  0
   -1.0992   -2.2208    0.0000 H   0  0  0  0  0  0  0  0  0  0  0  0
   -0.5968    0.5344    0.0000 H   0  0  0  0  0  0  0  0  0  0  0  0
    0.2165   -2.3309    0.0000 H   0  0  0  0  0  0  0  0  0  0  0  0
    0.7387    0.5327    0.0000 H   0  0  0  0  0  0  0  0  0  0  0  0
    2.5955   -2.0589    0.0000 H   0  0  0  0  0  0  0  0  0  0  0  0
    2.8367   -0.0467    0.0000 H   0  0  0  0  0  0  0  0  0  0  0  0
   -4.3811   -5.0100    0.0000 H   0  0  0  0  0  0  0  0  0  0  0  0
   -1.5321   -7.8621    0.0000 H   0  0  0  0  0  0  0  0  0  0  0  0
   -4.0314  -10.4555    0.0000 H   0  0  0  0  0  0  0  0  0  0  0  0
   -2.3614   -9.4913    0.0000 H   0  0  0  0  0  0  0  0  0  0  0  0
   -6.6805   -9.4913    0.0000 H   0  0  0  0  0  0  0  0  0  0  0  0
   -5.0104  -10.4555    0.0000 H   0  0  0  0  0  0  0  0  0  0  0  0
   -8.0700   -5.6302    0.0000 H   0  0  0  0  0  0  0  0  0  0  0  0
   -7.3942   -4.6167    0.0000 H   0  0  0  0  0  0  0  0  0  0  0  0
   -5.9965   -3.6078    0.0000 H   0  0  0  0  0  0  0  0  0  0  0  0
   -4.8105   -3.4704    0.0000 H   0  0  0  0  0  0  0  0  0  0  0  0
   -3.4510   -3.8502    0.0000 H   0  0  0  0  0  0  0  0  0  0  0  0
   -4.5666   -5.0559    0.0000 H   0  0  0  0  0  0  0  0  0  0  0  0
  1  2  2  3
  2  3  1  0
  3  4  1  0
  4  5  1  0
  5  6  1  0
  6  7  1  0
  7  8  1  0
  8  9  1  0
  9 10  1  0
 10 11  1  0
  8 12  1  0
 12 13  1  0
 13 14  1  0
 14 15  1  0
 15 16  1  0
 15 17  1  0
 17 18  1  0
 18 19  1  0
 19 20  1  0
 20 21  1  0
 21 22  1  0
 22 23  1  0
 23 24  1  0
 23 25  1  0
 23 26  1  0
 26 27  2  3
 21 28  1  0
 18 29  1  0
 29 30  1  0
 30 31  1  0
 31 32  1  0
 32 33  1  0
 30 34  1  0
  3 35  1  0
 35 36  1  0
 36 37  1  0
 37 38  1  0
 38 39  1  0
 39 40  1  0
 40 41  1  0
 41 42  1  0
 42 43  1  0
 40 44  1  0
  7  5  1  0
 34 14  1  0
 44 35  1  0
 34  6  1  0
 43 36  1  0
 28  7  1  0
 44 39  1  0
 34 15  1  0
 28 20  1  0
  1 45  1  0
  1 46  1  0
  2 47  1  0
  3 48  1  0
  5 49  1  0
  6 50  1  0
  8 51  1  0
  9 52  1  0
  9 53  1  0
 10 54  1  0
 11 55  1  0
 11 56  1  0
 11 57  1  0
 12 58  1  0
 12 59  1  0
 13 60  1  0
 13 61  1  0
 14 62  1  0
 16 63  1  0
 16 64  1  0
 16 65  1  0
 17 66  1  0
 17 67  1  0
 18 68  1  0
 19 69  1  0
 19 70  1  0
 20 71  1  0
 21 72  1  0
 22 73  1  0
 22 74  1  0
 24 75  1  0
 24 76  1  0
 24 77  1  0
 25 78  1  0
 25 79  1  0
 25 80  1  0
 26 81  1  0
 27 82  1  0
 27 83  1  0
 28 84  1  0
 29 85  1  0
 29 86  1  0
 30 87  1  0
 31 88  1  0
 31 89  1  0
 32 90  1  0
 32 91  1  0
 33 92  1  0
 33 93  1  0
 35 94  1  0
 36 95  1  0
 37 96  1  0
 37 97  1  0
 38 98  1  0
 38 99  1  0
 40100  1  0
 41101  1  0
 41102  1  0
 42103  1  0
 42104  1  0
 44105  1  0
M  END
$$$$
