
     RDKit          2D

 88 92  0  0  0  0  0  0  0  0999 V2000
  -11.7166    7.0827    0.0000 C   0  0  0  0  0  0  0  0  0  0  0  0
  -10.3393    6.4886    0.0000 C   0  0  0  0  0  0  0  0  0  0  0  0
  -10.1651    4.9987    0.0000 C   0  0  0  0  0  0  0  0  0  0  0  0
   -9.9910    3.5088    0.0000 C   0  0  0  0  0  0  0  0  0  0  0  0
   -9.8168    2.0190    0.0000 C   0  0  0  0  0  0  0  0  0  0  0  0
   -9.6427    0.5291    0.0000 C   0  0  0  0  0  0  0  0  0  0  0  0
  -10.8459   -0.3666    0.0000 C   0  0  0  0  0  0  0  0  0  0  0  0
  -10.6718   -1.8565    0.0000 C   0  0  0  0  0  0  0  0  0  0  0  0
  -11.8749   -2.7522    0.0000 C   0  0  0  0  0  0  0  0  0  0  0  0
   -9.2944   -2.4506    0.0000 C   0  0  0  0  0  0  0  0  0  0  0  0
   -8.0912   -1.5548    0.0000 C   0  0  0  0  0  0  0  0  0  0  0  0
   -6.7139   -2.1490    0.0000 C   0  0  0  0  0  0  0  0  0  0  0  0
   -5.2165   -2.2362    0.0000 C   0  0  0  0  0  0  0  0  0  0  0  0
   -5.8897   -0.8957    0.0000 C   0  0  0  0  0  0  0  0  0  0  0  0
   -4.6865    0.0000    0.0000 C   0  0  0  0  0  0  0  0  0  0  0  0
   -4.1734    1.4095    0.0000 C   0  0  0  0  0  0  0  0  0  0  0  0
   -2.8744    2.1595    0.0000 C   0  0  0  0  0  0  0  0  0  0  0  0
   -1.3972    1.8991    0.0000 C   0  0  0  0  0  0  0  0  0  0  0  0
   -1.5713    3.3889    0.0000 C   0  0  0  0  0  0  0  0  0  0  0  0
   -1.7455    4.8788    0.0000 I   0  0  0  0  0  0  0  0  0  0  0  0
   -0.4330    0.7500    0.0000 C   0  0  0  0  0  0  0  0  0  0  0  0
    0.8660    0.0000    0.0000 C   0  0  0  0  0  0  0  0  0  0  0  0
   -0.4330   -0.7500    0.0000 C   0  0  0  0  0  0  0  0  0  0  0  0
   -1.3972   -1.8991    0.0000 C   0  0  0  0  0  0  0  0  0  0  0  0
   -1.9102   -3.3086    0.0000 C   0  0  0  0  0  0  0  0  0  0  0  0
   -0.6112   -4.0586    0.0000 C   0  0  0  0  0  0  0  0  0  0  0  0
    0.6879   -4.8086    0.0000 C   0  0  0  0  0  0  0  0  0  0  0  0
    1.9869   -5.5586    0.0000 C   0  0  0  0  0  0  0  0  0  0  0  0
    3.2859   -6.3086    0.0000 C   0  0  0  0  0  0  0  0  0  0  0  0
    2.7369   -4.2596    0.0000 C   0  0  0  0  0  0  0  0  0  0  0  0
   -2.8744   -2.1595    0.0000 C   0  0  0  0  0  0  0  0  0  0  0  0
   -3.8386   -3.3086    0.0000 C   0  0  0  0  0  0  0  0  0  0  0  0
   -4.1734   -1.4095    0.0000 C   0  0  0  0  0  0  0  0  0  0  0  0
   -4.5194   -2.8691    0.0000 C   0  0  0  0  0  0  0  0  0  0  0  0
   -4.8653   -4.3287    0.0000 C   0  0  0  0  0  0  0  0  0  0  0  0
   -3.7742   -5.3580    0.0000 O   0  0  0  0  0  0  0  0  0  0  0  0
   -8.2654   -0.0650    0.0000 C   0  0  0  0  0  0  0  0  0  0  0  0
  -11.8907    8.5725    0.0000 H   0  0  0  0  0  0  0  0  0  0  0  0
  -12.9198    6.1869    0.0000 H   0  0  0  0  0  0  0  0  0  0  0  0
   -9.1361    7.3843    0.0000 H   0  0  0  0  0  0  0  0  0  0  0  0
   -8.6753    5.1728    0.0000 H   0  0  0  0  0  0  0  0  0  0  0  0
  -11.6550    4.8246    0.0000 H   0  0  0  0  0  0  0  0  0  0  0  0
   -8.5011    3.6830    0.0000 H   0  0  0  0  0  0  0  0  0  0  0  0
  -11.4808    3.3347    0.0000 H   0  0  0  0  0  0  0  0  0  0  0  0
  -11.3067    1.8448    0.0000 H   0  0  0  0  0  0  0  0  0  0  0  0
   -8.3270    2.1931    0.0000 H   0  0  0  0  0  0  0  0  0  0  0  0
  -12.2232    0.2275    0.0000 H   0  0  0  0  0  0  0  0  0  0  0  0
  -13.0781   -3.6479    0.0000 H   0  0  0  0  0  0  0  0  0  0  0  0
  -10.9792   -3.9554    0.0000 H   0  0  0  0  0  0  0  0  0  0  0  0
  -12.7707   -1.5490    0.0000 H   0  0  0  0  0  0  0  0  0  0  0  0
   -9.1203   -3.9404    0.0000 H   0  0  0  0  0  0  0  0  0  0  0  0
   -7.0598   -3.6085    0.0000 H   0  0  0  0  0  0  0  0  0  0  0  0
   -5.5879   -3.6895    0.0000 H   0  0  0  0  0  0  0  0  0  0  0  0
   -3.7181   -2.1665    0.0000 H   0  0  0  0  0  0  0  0  0  0  0  0
   -6.8471    0.2589    0.0000 H   0  0  0  0  0  0  0  0  0  0  0  0
   -5.9899    0.7424    0.0000 H   0  0  0  0  0  0  0  0  0  0  0  0
   -5.6491    1.6786    0.0000 H   0  0  0  0  0  0  0  0  0  0  0  0
   -4.5957    2.5488    0.0000 H   0  0  0  0  0  0  0  0  0  0  0  0
   -3.7582    2.9933    0.0000 H   0  0  0  0  0  0  0  0  0  0  0  0
   -2.7958    2.9528    0.0000 H   0  0  0  0  0  0  0  0  0  0  0  0
   -0.2320    2.5809    0.0000 H   0  0  0  0  0  0  0  0  0  0  0  0
   -0.2305    3.5456    0.0000 H   0  0  0  0  0  0  0  0  0  0  0  0
   -2.3620    3.4907    0.0000 H   0  0  0  0  0  0  0  0  0  0  0  0
    0.6640    1.7730    0.0000 H   0  0  0  0  0  0  0  0  0  0  0  0
    1.8302    1.1491    0.0000 H   0  0  0  0  0  0  0  0  0  0  0  0
    1.8302   -1.1491    0.0000 H   0  0  0  0  0  0  0  0  0  0  0  0
    0.5312   -1.8991    0.0000 H   0  0  0  0  0  0  0  0  0  0  0  0
   -0.0164   -2.4851    0.0000 H   0  0  0  0  0  0  0  0  0  0  0  0
   -2.7271   -4.5666    0.0000 H   0  0  0  0  0  0  0  0  0  0  0  0
   -1.3612   -5.3576    0.0000 H   0  0  0  0  0  0  0  0  0  0  0  0
    0.2916   -2.8607    0.0000 H   0  0  0  0  0  0  0  0  0  0  0  0
   -0.0621   -6.1076    0.0000 H   0  0  0  0  0  0  0  0  0  0  0  0
    1.2739   -3.4278    0.0000 H   0  0  0  0  0  0  0  0  0  0  0  0
    1.2369   -6.8576    0.0000 H   0  0  0  0  0  0  0  0  0  0  0  0
    4.5850   -7.0586    0.0000 H   0  0  0  0  0  0  0  0  0  0  0  0
    2.5359   -7.6076    0.0000 H   0  0  0  0  0  0  0  0  0  0  0  0
    4.1887   -5.1107    0.0000 H   0  0  0  0  0  0  0  0  0  0  0  0
    3.4869   -2.9605    0.0000 H   0  0  0  0  0  0  0  0  0  0  0  0
    4.1177   -4.8456    0.0000 H   0  0  0  0  0  0  0  0  0  0  0  0
    1.5390   -3.3568    0.0000 H   0  0  0  0  0  0  0  0  0  0  0  0
   -4.3268   -4.7269    0.0000 H   0  0  0  0  0  0  0  0  0  0  0  0
   -5.3058   -2.9969    0.0000 H   0  0  0  0  0  0  0  0  0  0  0  0
   -2.8156   -4.4057    0.0000 H   0  0  0  0  0  0  0  0  0  0  0  0
   -5.6053   -1.8565    0.0000 H   0  0  0  0  0  0  0  0  0  0  0  0
   -3.1869   -3.5579    0.0000 H   0  0  0  0  0  0  0  0  0  0  0  0
   -5.9789   -2.5232    0.0000 H   0  0  0  0  0  0  0  0  0  0  0  0
   -6.3023   -4.7589    0.0000 H   0  0  0  0  0  0  0  0  0  0  0  0
   -7.1804    0.9707    0.0000 H   0  0  0  0  0  0  0  0  0  0  0  0
  1  2  2  3
  2  3  1  0
  3  4  1  0
  4  5  1  0
  5  6  1  0
  6  7  2  0
  7  8  1  0
  8  9  1  0
  8 10  2  0
 10 11  1  0
 11 12  1  0
 12 13  1  0
 13 14  1  0
 14 15  1  0
 15 16  1  0
 16 17  1  0
 17 18  1  0
 18 19  1  0
 19 20  1  0
 18 21  1  0
 21 22  1  0
 22 23  1  0
 23 24  1  0
 24 25  1  0
 25 26  1  0
 26 27  1  0
 27 28  1  0
 28 29  1  0
 28 30  1  0
 25 31  1  0
 31 32  1  0
 31 33  1  0
 33 34  1  0
 34 35  1  0
 35 36  2  0
 11 37  2  0
 37  6  1  0
 14 12  1  0
 33 15  1  0
 23 21  1  0
 31 24  1  0
  1 38  1  0
  1 39  1  0
  2 40  1  0
  3 41  1  0
  3 42  1  0
  4 43  1  0
  4 44  1  0
  5 45  1  0
  5 46  1  0
  7 47  1  0
  9 48  1  0
  9 49  1  0
  9 50  1  0
 10 51  1  0
 12 52  1  0
 13 53  1  0
 13 54  1  0
 14 55  1  0
 15 56  1  0
 16 57  1  0
 16 58  1  0
 17 59  1  0
 17 60  1  0
 18 61  1  0
 19 62  1  0
 19 63  1  0
 21 64  1  0
 22 65  1  0
 22 66  1  0
 23 67  1  0
 24 68  1  0
 25 69  1  0
 26 70  1  0
 26 71  1  0
 27 72  1  0
 27 73  1  0
 28 74  1  0
 29 75  1  0
 29 76  1  0
 29 77  1  0
 30 78  1  0
 30 79  1  0
 30 80  1  0
 32 81  1  0
 32 82  1  0
 32 83  1  0
 33 84  1  0
 34 85  1  0
 34 86  1  0
 35 87  1  0
 37 88  1  0
M  END
$$$$
