
     RDKit          2D

 91107  0  0  0  0  0  0  0  0999 V2000
   -3.8762   -6.9527    0.0000 C   0  0  0  0  0  0  0  0  0  0  0  0
   -2.4185   -6.5991    0.0000 C   0  0  0  0  0  0  0  0  0  0  0  0
   -1.9959   -5.1598    0.0000 C   0  0  0  0  0  0  0  0  0  0  0  0
   -1.5733   -3.7206    0.0000 C   0  0  0  0  0  0  0  0  0  0  0  0
   -2.6084   -2.6350    0.0000 C   0  0  0  0  0  0  0  0  0  0  0  0
   -4.0932   -2.4215    0.0000 C   0  0  0  0  0  0  0  0  0  0  0  0
   -5.2268   -1.4392    0.0000 C   0  0  0  0  0  0  0  0  0  0  0  0
   -5.7843   -2.8318    0.0000 C   0  0  0  0  0  0  0  0  0  0  0  0
   -6.3418   -4.2243    0.0000 N   0  0  0  0  0  0  0  0  0  0  0  0
   -5.6494    0.0000    0.0000 N   0  0  0  0  0  0  0  0  0  0  0  0
   -5.2268    1.4392    0.0000 C   0  0  0  0  0  0  0  0  0  0  0  0
   -4.0932    2.4215    0.0000 C   0  0  0  0  0  0  0  0  0  0  0  0
   -3.8028    0.6812    0.0000 C   0  0  0  0  0  0  0  0  0  0  0  0
   -2.8438   -0.4722    0.0000 C   0  0  0  0  0  0  0  0  0  0  0  0
   -2.1205    0.8419    0.0000 C   0  0  0  0  0  0  0  0  0  0  0  0
   -1.2197    0.5102    0.0000 C   0  0  0  0  0  0  0  0  0  0  0  0
   -1.3441   -0.4416    0.0000 C   0  0  0  0  0  0  0  0  0  0  0  0
   -0.4330    0.7500    0.0000 C   0  0  0  0  0  0  0  0  0  0  0  0
   -1.2440    2.0119    0.0000 C   0  0  0  0  0  0  0  0  0  0  0  0
   -1.3866    3.5051    0.0000 C   0  0  0  0  0  0  0  0  0  0  0  0
   -2.3348    4.7130    0.0000 C   0  0  0  0  0  0  0  0  0  0  0  0
   -3.5357    3.8141    0.0000 C   0  0  0  0  0  0  0  0  0  0  0  0
   -2.6084    2.6350    0.0000 C   0  0  0  0  0  0  0  0  0  0  0  0
    0.8660    0.0000    0.0000 C   0  0  0  0  0  0  0  0  0  0  0  0
    1.8302   -1.1491    0.0000 I   0  0  0  0  0  0  0  0  0  0  0  0
    1.8302    1.1491    0.0000 C   0  0  0  0  0  0  0  0  0  0  0  0
    2.7944    2.2981    0.0000 C   0  0  0  0  0  0  0  0  0  0  0  0
    3.7586    3.4472    0.0000 C   0  0  0  0  0  0  0  0  0  0  0  0
    5.1681    3.9602    0.0000 C   0  0  0  0  0  0  0  0  0  0  0  0
    4.9076    2.4830    0.0000 C   0  0  0  0  0  0  0  0  0  0  0  0
    6.0567    1.5188    0.0000 C   0  0  0  0  0  0  0  0  0  0  0  0
    5.0925    0.3698    0.0000 O   0  0  0  0  0  0  0  0  0  0  0  0
    3.9435    1.3340    0.0000 C   0  0  0  0  0  0  0  0  0  0  0  0
   -0.4330   -0.7500    0.0000 C   0  0  0  0  0  0  0  0  0  0  0  0
    0.2543   -2.0833    0.0000 N   0  0  0  0  0  0  0  0  0  0  0  0
   -1.2440   -2.0119    0.0000 C   0  0  0  0  0  0  0  0  0  0  0  0
   -0.9601   -3.4848    0.0000 C   0  0  0  0  0  0  0  0  0  0  0  0
   -1.3834   -7.6847    0.0000 C   0  0  0  0  0  0  0  0  0  0  0  0
   -0.3483   -8.7703    0.0000 C   0  0  0  0  0  0  0  0  0  0  0  0
   -2.4690   -8.7198    0.0000 C   0  0  0  0  0  0  0  0  0  0  0  0
   -1.5243   -9.8850    0.0000 C   0  0  0  0  0  0  0  0  0  0  0  0
   -3.1373  -10.4639    0.0000 C   0  0  0  0  0  0  0  0  0  0  0  0
   -4.1724   -9.3783    0.0000 C   0  0  0  0  0  0  0  0  0  0  0  0
   -3.7498   -7.9391    0.0000 C   0  0  0  0  0  0  0  0  0  0  0  0
   -2.7147   -9.0247    0.0000 C   0  0  0  0  0  0  0  0  0  0  0  0
   -5.3339   -7.3064    0.0000 H   0  0  0  0  0  0  0  0  0  0  0  0
   -3.8858   -8.4527    0.0000 H   0  0  0  0  0  0  0  0  0  0  0  0
   -4.2299   -5.4950    0.0000 H   0  0  0  0  0  0  0  0  0  0  0  0
   -0.0833   -3.5473    0.0000 H   0  0  0  0  0  0  0  0  0  0  0  0
   -3.2958   -3.9683    0.0000 H   0  0  0  0  0  0  0  0  0  0  0  0
   -3.8093   -3.8944    0.0000 H   0  0  0  0  0  0  0  0  0  0  0  0
   -5.1721   -3.4636    0.0000 H   0  0  0  0  0  0  0  0  0  0  0  0
   -6.7251   -1.3679    0.0000 H   0  0  0  0  0  0  0  0  0  0  0  0
   -7.1768   -2.2743    0.0000 H   0  0  0  0  0  0  0  0  0  0  0  0
   -4.4701   -3.5549    0.0000 H   0  0  0  0  0  0  0  0  0  0  0  0
   -7.8265   -4.4378    0.0000 H   0  0  0  0  0  0  0  0  0  0  0  0
   -5.4145   -5.4034    0.0000 H   0  0  0  0  0  0  0  0  0  0  0  0
   -7.1494    0.0000    0.0000 H   0  0  0  0  0  0  0  0  0  0  0  0
   -6.7251    1.3679    0.0000 H   0  0  0  0  0  0  0  0  0  0  0  0
   -5.7843    2.8318    0.0000 H   0  0  0  0  0  0  0  0  0  0  0  0
   -5.1268   -0.0236    0.0000 H   0  0  0  0  0  0  0  0  0  0  0  0
   -1.3691   -0.7466    0.0000 H   0  0  0  0  0  0  0  0  0  0  0  0
   -0.2115    2.3156    0.0000 H   0  0  0  0  0  0  0  0  0  0  0  0
    0.8739    0.7462    0.0000 H   0  0  0  0  0  0  0  0  0  0  0  0
    0.0127    2.8309    0.0000 H   0  0  0  0  0  0  0  0  0  0  0  0
   -0.6018    4.7834    0.0000 H   0  0  0  0  0  0  0  0  0  0  0  0
   -3.0807    6.0144    0.0000 H   0  0  0  0  0  0  0  0  0  0  0  0
   -1.2526    5.7516    0.0000 H   0  0  0  0  0  0  0  0  0  0  0  0
   -3.9285    5.2617    0.0000 H   0  0  0  0  0  0  0  0  0  0  0  0
    2.9793    0.1849    0.0000 H   0  0  0  0  0  0  0  0  0  0  0  0
    0.8072    2.2461    0.0000 H   0  0  0  0  0  0  0  0  0  0  0  0
    1.6453    3.2623    0.0000 H   0  0  0  0  0  0  0  0  0  0  0  0
    2.8982    4.6759    0.0000 H   0  0  0  0  0  0  0  0  0  0  0  0
    4.9076    5.4374    0.0000 H   0  0  0  0  0  0  0  0  0  0  0  0
    6.6681    3.9602    0.0000 H   0  0  0  0  0  0  0  0  0  0  0  0
    7.2058    0.5547    0.0000 H   0  0  0  0  0  0  0  0  0  0  0  0
    7.0209    2.6679    0.0000 H   0  0  0  0  0  0  0  0  0  0  0  0
    4.6009    2.6822    0.0000 H   0  0  0  0  0  0  0  0  0  0  0  0
    1.5162   -2.8942    0.0000 H   0  0  0  0  0  0  0  0  0  0  0  0
   -0.6762   -4.9577    0.0000 H   0  0  0  0  0  0  0  0  0  0  0  0
    0.4672   -3.0235    0.0000 H   0  0  0  0  0  0  0  0  0  0  0  0
   -2.3874   -3.9461    0.0000 H   0  0  0  0  0  0  0  0  0  0  0  0
   -0.2978   -6.6496    0.0000 H   0  0  0  0  0  0  0  0  0  0  0  0
    0.6869   -9.8559    0.0000 H   0  0  0  0  0  0  0  0  0  0  0  0
    0.7373   -7.7352    0.0000 H   0  0  0  0  0  0  0  0  0  0  0  0
   -1.1511  -10.0373    0.0000 H   0  0  0  0  0  0  0  0  0  0  0  0
   -0.0756   -9.4959    0.0000 H   0  0  0  0  0  0  0  0  0  0  0  0
   -1.0351  -11.3029    0.0000 H   0  0  0  0  0  0  0  0  0  0  0  0
   -5.6301   -9.7320    0.0000 H   0  0  0  0  0  0  0  0  0  0  0  0
   -4.4457   -6.6103    0.0000 H   0  0  0  0  0  0  0  0  0  0  0  0
   -1.2570   -8.6711    0.0000 H   0  0  0  0  0  0  0  0  0  0  0  0
  1  2  1  0
  2  3  2  0
  3  4  2  0
  4  5  1  0
  5  6  1  0
  6  7  1  0
  7  8  1  0
  8  9  1  0
  7 10  1  0
 10 11  1  0
 11 12  1  0
 12 13  1  0
 13 14  1  0
 14 15  1  0
 15 16  1  0
 16 17  1  0
 17 18  1  0
 18 19  1  0
 19 20  1  0
 20 21  1  0
 21 22  1  0
 22 23  1  0
 18 24  1  0
 24 25  1  0
 24 26  1  0
 26 27  1  0
 27 28  1  0
 28 29  1  0
 29 30  1  0
 30 31  1  0
 31 32  1  0
 32 33  1  0
 24 34  1  0
 34 35  1  0
 35 36  1  0
 36 37  1  0
  2 38  1  0
 38 39  1  0
 38 40  1  0
 40 41  1  0
 41 42  1  0
 42 43  1  0
 43 44  1  0
 44 45  1  0
 36  5  1  0
 42 40  1  0
 45 43  1  0
 22 12  1  0
 33 27  1  0
 36 34  1  0
 44 40  1  0
 23 12  1  0
 30 28  1  0
 45 42  1  0
 15 13  1  0
 34 18  1  0
 17 14  1  0
 23 19  1  0
 33 30  1  0
 17 15  1  0
 23 20  1  0
  1 46  1  0
  1 47  1  0
  1 48  1  0
  4 49  1  0
  5 50  1  0
  6 51  1  0
  6 52  1  0
  7 53  1  0
  8 54  1  0
  8 55  1  0
  9 56  1  0
  9 57  1  0
 10 58  1  0
 11 59  1  0
 11 60  1  0
 13 61  1  0
 14 62  1  0
 16 63  1  0
 16 64  1  0
 19 65  1  0
 20 66  1  0
 21 67  1  0
 21 68  1  0
 22 69  1  0
 26 70  1  0
 26 71  1  0
 27 72  1  0
 28 73  1  0
 29 74  1  0
 29 75  1  0
 31 76  1  0
 31 77  1  0
 33 78  1  0
 35 79  1  0
 37 80  1  0
 37 81  1  0
 37 82  1  0
 38 83  1  0
 39 84  1  0
 39 85  1  0
 39 86  1  0
 41 87  1  0
 41 88  1  0
 43 89  1  0
 44 90  1  0
 45 91  1  0
M  END
$$$$
