
     RDKit          2D

 58 62  0  0  0  0  0  0  0  0999 V2000
    1.4843    3.8594    0.0000 C   0  0  0  0  0  0  0  0  0  0  0  0
    1.4843    2.3594    0.0000 C   0  0  0  0  0  0  0  0  0  0  0  0
    1.4843    0.8594    0.0000 C   0  0  0  0  0  0  0  0  0  0  0  0
    1.4843   -0.6406    0.0000 C   0  0  0  0  0  0  0  0  0  0  0  0
    1.4843   -2.1406    0.0000 C   0  0  0  0  0  0  0  0  0  0  0  0
    1.4843   -3.6406    0.0000 C   0  0  0  0  0  0  0  0  0  0  0  0
    1.4843   -5.1406    0.0000 C   0  0  0  0  0  0  0  0  0  0  0  0
    2.9843   -5.1406    0.0000 O   0  0  0  0  0  0  0  0  0  0  0  0
   -0.0157   -5.1406    0.0000 C   0  0  0  0  0  0  0  0  0  0  0  0
   -1.4422   -5.6041    0.0000 C   0  0  0  0  0  0  0  0  0  0  0  0
   -0.8321   -6.9744    0.0000 O   0  0  0  0  0  0  0  0  0  0  0  0
   -2.3239   -4.3906    0.0000 O   0  0  0  0  0  0  0  0  0  0  0  0
   -1.4422   -3.1771    0.0000 C   0  0  0  0  0  0  0  0  0  0  0  0
   -2.7413   -2.4271    0.0000 C   0  0  0  0  0  0  0  0  0  0  0  0
   -3.8560   -1.4234    0.0000 C   0  0  0  0  0  0  0  0  0  0  0  0
   -5.1550   -2.1734    0.0000 C   0  0  0  0  0  0  0  0  0  0  0  0
   -5.7651   -0.8030    0.0000 C   0  0  0  0  0  0  0  0  0  0  0  0
   -4.8432   -3.6406    0.0000 C   0  0  0  0  0  0  0  0  0  0  0  0
   -5.4533   -5.0109    0.0000 C   0  0  0  0  0  0  0  0  0  0  0  0
   -4.3386   -6.0146    0.0000 C   0  0  0  0  0  0  0  0  0  0  0  0
   -3.0395   -6.7646    0.0000 C   0  0  0  0  0  0  0  0  0  0  0  0
   -3.0395   -5.2646    0.0000 C   0  0  0  0  0  0  0  0  0  0  0  0
   -3.3514   -3.7974    0.0000 C   0  0  0  0  0  0  0  0  0  0  0  0
   -0.0157   -3.6406    0.0000 C   0  0  0  0  0  0  0  0  0  0  0  0
    1.4843    5.3594    0.0000 H   0  0  0  0  0  0  0  0  0  0  0  0
   -0.0157    3.8594    0.0000 H   0  0  0  0  0  0  0  0  0  0  0  0
    2.9843    3.8594    0.0000 H   0  0  0  0  0  0  0  0  0  0  0  0
    2.9843    2.3594    0.0000 H   0  0  0  0  0  0  0  0  0  0  0  0
   -0.0157    2.3594    0.0000 H   0  0  0  0  0  0  0  0  0  0  0  0
    2.9843    0.8594    0.0000 H   0  0  0  0  0  0  0  0  0  0  0  0
   -0.0157    0.8594    0.0000 H   0  0  0  0  0  0  0  0  0  0  0  0
    2.9843   -0.6406    0.0000 H   0  0  0  0  0  0  0  0  0  0  0  0
   -0.0157   -0.6406    0.0000 H   0  0  0  0  0  0  0  0  0  0  0  0
    2.9843   -2.1406    0.0000 H   0  0  0  0  0  0  0  0  0  0  0  0
   -0.0045   -1.9577    0.0000 H   0  0  0  0  0  0  0  0  0  0  0  0
    2.9843   -3.6406    0.0000 H   0  0  0  0  0  0  0  0  0  0  0  0
    1.4843   -6.6406    0.0000 H   0  0  0  0  0  0  0  0  0  0  0  0
    3.7343   -6.4396    0.0000 H   0  0  0  0  0  0  0  0  0  0  0  0
    0.2190   -6.6221    0.0000 H   0  0  0  0  0  0  0  0  0  0  0  0
   -2.2288   -6.3638    0.0000 H   0  0  0  0  0  0  0  0  0  0  0  0
   -1.7138   -8.1879    0.0000 H   0  0  0  0  0  0  0  0  0  0  0  0
   -1.0037   -1.7426    0.0000 H   0  0  0  0  0  0  0  0  0  0  0  0
   -1.8596   -1.2135    0.0000 H   0  0  0  0  0  0  0  0  0  0  0  0
   -2.7413   -0.4197    0.0000 H   0  0  0  0  0  0  0  0  0  0  0  0
   -4.2424   -0.7261    0.0000 H   0  0  0  0  0  0  0  0  0  0  0  0
   -6.6275   -2.4595    0.0000 H   0  0  0  0  0  0  0  0  0  0  0  0
   -6.3752    0.5673    0.0000 H   0  0  0  0  0  0  0  0  0  0  0  0
   -7.1355   -1.4131    0.0000 H   0  0  0  0  0  0  0  0  0  0  0  0
   -5.0818   -0.3924    0.0000 H   0  0  0  0  0  0  0  0  0  0  0  0
   -6.3349   -3.4838    0.0000 H   0  0  0  0  0  0  0  0  0  0  0  0
   -6.8340   -4.4248    0.0000 H   0  0  0  0  0  0  0  0  0  0  0  0
   -6.3349   -6.2244    0.0000 H   0  0  0  0  0  0  0  0  0  0  0  0
   -5.2202   -7.2281    0.0000 H   0  0  0  0  0  0  0  0  0  0  0  0
   -3.5525   -8.1741    0.0000 H   0  0  0  0  0  0  0  0  0  0  0  0
   -1.6692   -7.3748    0.0000 H   0  0  0  0  0  0  0  0  0  0  0  0
   -1.5907   -5.6529    0.0000 H   0  0  0  0  0  0  0  0  0  0  0  0
   -1.9419   -4.3105    0.0000 H   0  0  0  0  0  0  0  0  0  0  0  0
   -0.1723   -5.1324    0.0000 H   0  0  0  0  0  0  0  0  0  0  0  0
  1  2  1  0
  2  3  1  0
  3  4  1  0
  4  5  1  0
  5  6  1  0
  6  7  1  0
  7  8  1  0
  7  9  1  0
  9 10  1  0
 10 11  1  0
 10 12  1  0
 12 13  1  0
 13 14  1  0
 14 15  1  0
 15 16  1  0
 16 17  1  0
 16 18  1  0
 18 19  1  0
 19 20  1  0
 20 21  1  0
 21 22  1  0
 22 23  1  0
 13 24  1  0
 24  6  1  0
 24  9  1  0
 23 14  1  0
 23 18  1  0
 22 20  1  0
  1 25  1  0
  1 26  1  0
  1 27  1  0
  2 28  1  0
  2 29  1  0
  3 30  1  0
  3 31  1  0
  4 32  1  0
  4 33  1  0
  5 34  1  0
  5 35  1  0
  6 36  1  0
  7 37  1  0
  8 38  1  0
  9 39  1  0
 10 40  1  0
 11 41  1  0
 13 42  1  0
 14 43  1  0
 15 44  1  0
 15 45  1  0
 16 46  1  0
 17 47  1  0
 17 48  1  0
 17 49  1  0
 18 50  1  0
 19 51  1  0
 19 52  1  0
 20 53  1  0
 21 54  1  0
 21 55  1  0
 22 56  1  0
 23 57  1  0
 24 58  1  0
M  END
$$$$
