
     RDKit          3D

 28 31  0  0  0  0  0  0  0  0999 V2000
   20.0945  -22.8567  -13.0598 O   0  0  0  0  0  0  0  0  0  0  0  0
   21.2622  -22.3676  -13.1210 C   0  0  0  0  0  0  0  0  0  0  0  0
   21.5039  -21.1242  -12.5228 O   0  0  0  0  0  0  0  0  0  0  0  0
   22.3544  -23.0557  -13.8996 C   0  0  0  0  0  0  0  0  0  0  0  0
   23.6075  -23.3747  -13.0746 C   0  0  0  0  0  0  0  0  0  0  0  0
   23.7485  -23.2495  -11.7403 C   0  0  0  0  0  0  0  0  0  0  0  0
   25.0481  -23.6586  -11.0581 C   0  0  0  0  0  0  0  0  0  0  0  0
   21.8429  -24.3777  -14.5448 C   0  0  0  0  0  0  0  0  0  0  0  0
   26.3263  -25.4930  -12.5107 C   0  0  0  0  0  0  0  0  0  0  0  0
   24.2248  -26.1155  -11.1997 C   0  0  0  0  0  0  0  0  0  0  0  0
   22.9583  -25.1842  -15.1754 C   0  0  0  0  0  0  0  0  0  0  0  0
   23.3598  -24.6606  -16.5578 C   0  0  0  0  0  0  0  0  0  0  0  0
   23.6050  -25.8119  -17.5231 C   0  0  0  0  0  0  0  0  0  0  0  0
   27.1599  -24.3007  -13.0692 C   0  0  0  0  0  0  0  0  0  0  0  0
   24.7634  -26.4833  -17.5924 C   0  0  0  0  0  0  0  0  0  0  0  0
   28.6452  -24.5879  -13.3533 C   0  0  0  0  0  0  0  0  0  0  0  0
   28.2534  -23.7650  -12.1304 C   0  0  0  0  0  0  0  0  0  0  0  0
   21.9208  -24.4786  -16.0662 C   0  0  0  0  0  0  0  0  0  0  0  0
   25.4567  -25.1611  -11.2562 C   0  0  0  0  0  0  0  0  0  0  0  0
   24.8070  -23.4500   -9.3007 Cl  0  0  0  0  0  0  0  0  0  0  0  0
   25.9813  -26.1609  -16.7288 C   0  0  0  0  0  0  0  0  0  0  0  0
   27.0097  -27.2984  -16.6505 C   0  0  0  0  0  0  0  0  0  0  0  0
   27.6506  -27.5126  -17.9453 N   0  0  0  0  0  0  0  0  0  0  0  0
   26.3943  -28.6179  -16.1647 C   0  0  0  0  0  0  0  0  0  0  0  0
   25.6810  -28.5502  -14.8051 C   0  0  0  0  0  0  0  0  0  0  0  0
   25.0417  -29.9011  -14.4740 C   0  0  0  0  0  0  0  0  0  0  0  0
   25.8228  -30.8269  -13.5330 C   0  0  0  0  0  0  0  0  0  0  0  0
   24.6253  -30.0563  -13.0208 C   0  0  0  0  0  0  0  0  0  0  0  0
  2  1  2  0
  3  2  1  0
  4  2  1  0
  5  4  1  0
  6  5  2  3
  7  6  1  0
  8  4  1  0
 11  8  1  0
 12 11  1  0
 13 12  1  0
 14  9  1  0
 15 13  2  3
 16 14  1  0
 17 14  1  0
 17 16  1  0
 18  8  1  0
 18 11  1  0
 18 12  1  0
 19  7  1  0
 19  9  1  0
 19 10  1  0
 20  7  1  0
 21 15  1  0
 22 21  1  0
 23 22  1  0
 24 22  1  0
 25 24  1  0
 26 25  1  0
 27 26  1  0
 28 26  1  0
 28 27  1  0
M  END
$$$$
