
     RDKit          2D

 50 53  0  0  0  0  0  0  0  0999 V2000
    4.0613    5.2785    0.0000 C   0  0  0  0  0  0  0  0  0  0  0  0
    3.1796    4.0650    0.0000 C   0  0  0  0  0  0  0  0  0  0  0  0
    2.0649    5.0687    0.0000 C   0  0  0  0  0  0  0  0  0  0  0  0
    0.7659    4.3187    0.0000 C   0  0  0  0  0  0  0  0  0  0  0  0
   -0.6607    3.8551    0.0000 Si  0  0  0  0  0  4  0  0  0  0  0  0
    1.0777    2.8515    0.0000 C   0  0  0  0  0  0  0  0  0  0  0  0
    1.0777    1.3515    0.0000 C   0  0  0  0  0  0  0  0  0  0  0  0
    1.7286    0.0000    0.0000 C   0  0  0  0  0  0  0  0  0  0  0  0
    1.0777   -1.3515    0.0000 C   0  0  0  0  0  0  0  0  0  0  0  0
   -0.3846   -1.6852    0.0000 C   0  0  0  0  0  0  0  0  0  0  0  0
   -1.5574   -0.7500    0.0000 C   0  0  0  0  0  0  0  0  0  0  0  0
   -1.5574    0.7500    0.0000 C   0  0  0  0  0  0  0  0  0  0  0  0
   -0.3846    1.6852    0.0000 C   0  0  0  0  0  0  0  0  0  0  0  0
   -1.5574    2.6205    0.0000 C   0  0  0  0  0  0  0  0  0  0  0  0
   -2.7301    3.5557    0.0000 N   0  0  0  0  0  0  0  0  0  0  0  0
   -2.8981    5.0463    0.0000 O   0  0  0  0  0  0  0  0  0  0  0  0
   -4.3887    4.8783    0.0000 C   0  0  0  0  0  0  0  0  0  0  0  0
   -5.5955    3.9876    0.0000 N   0  0  0  0  0  0  0  0  0  0  0  0
   -4.2207    3.3878    0.0000 C   0  0  0  0  0  0  0  0  0  0  0  0
    2.5695    2.6947    0.0000 C   0  0  0  0  0  0  0  0  0  0  0  0
    4.9430    6.4920    0.0000 H   0  0  0  0  0  0  0  0  0  0  0  0
    5.2748    4.3968    0.0000 H   0  0  0  0  0  0  0  0  0  0  0  0
    3.4783    5.8222    0.0000 H   0  0  0  0  0  0  0  0  0  0  0  0
    4.4787    3.3150    0.0000 H   0  0  0  0  0  0  0  0  0  0  0  0
    1.1832    6.2822    0.0000 H   0  0  0  0  0  0  0  0  0  0  0  0
    2.5879    5.6703    0.0000 H   0  0  0  0  0  0  0  0  0  0  0  0
    0.1558    5.6890    0.0000 H   0  0  0  0  0  0  0  0  0  0  0  0
   -2.1571    3.7506    0.0000 H   0  0  0  0  0  0  0  0  0  0  0  0
   -1.1242    5.2817    0.0000 H   0  0  0  0  0  0  0  0  0  0  0  0
   -0.5562    2.3588    0.0000 H   0  0  0  0  0  0  0  0  0  0  0  0
   -0.4140    2.6947    0.0000 H   0  0  0  0  0  0  0  0  0  0  0  0
    2.5401    1.6852    0.0000 H   0  0  0  0  0  0  0  0  0  0  0  0
    3.0928    0.6237    0.0000 H   0  0  0  0  0  0  0  0  0  0  0  0
    3.0066   -0.7853    0.0000 H   0  0  0  0  0  0  0  0  0  0  0  0
    2.4885   -1.8610    0.0000 H   0  0  0  0  0  0  0  0  0  0  0  0
    1.2606   -2.8403    0.0000 H   0  0  0  0  0  0  0  0  0  0  0  0
    0.0966   -3.1059    0.0000 H   0  0  0  0  0  0  0  0  0  0  0  0
   -1.4346   -2.7564    0.0000 H   0  0  0  0  0  0  0  0  0  0  0  0
   -2.3681   -2.0120    0.0000 H   0  0  0  0  0  0  0  0  0  0  0  0
   -3.0496   -0.5970    0.0000 H   0  0  0  0  0  0  0  0  0  0  0  0
   -3.0496    0.5970    0.0000 H   0  0  0  0  0  0  0  0  0  0  0  0
   -2.3681    2.0120    0.0000 H   0  0  0  0  0  0  0  0  0  0  0  0
    0.2662    3.0367    0.0000 H   0  0  0  0  0  0  0  0  0  0  0  0
   -0.9337    3.9847    0.0000 H   0  0  0  0  0  0  0  0  0  0  0  0
   -2.6286    1.5705    0.0000 H   0  0  0  0  0  0  0  0  0  0  0  0
   -4.9367    6.2746    0.0000 H   0  0  0  0  0  0  0  0  0  0  0  0
   -7.0861    3.8196    0.0000 H   0  0  0  0  0  0  0  0  0  0  0  0
   -4.4443    1.9045    0.0000 H   0  0  0  0  0  0  0  0  0  0  0  0
    3.9961    2.2311    0.0000 H   0  0  0  0  0  0  0  0  0  0  0  0
    2.6220    1.1956    0.0000 H   0  0  0  0  0  0  0  0  0  0  0  0
  1  2  1  0
  2  3  1  0
  3  4  1  0
  4  5  1  0
  4  6  1  0
  6  7  1  0
  7  8  1  0
  8  9  1  0
  9 10  1  0
 10 11  1  0
 11 12  1  0
 12 13  1  0
 13 14  1  0
 14 15  1  0
 15 16  1  0
 16 17  1  0
 17 18  1  0
 18 19  1  0
  6 20  1  0
 20  2  1  0
 13  7  1  0
 19 15  1  0
 19 17  1  0
  1 21  1  0
  1 22  1  0
  1 23  1  0
  2 24  1  1
  3 25  1  0
  3 26  1  0
  4 27  1  6
  5 28  1  0
  5 29  1  0
  5 30  1  0
  6 31  1  6
  7 32  1  1
  8 33  1  0
  8 34  1  0
  9 35  1  0
  9 36  1  0
 10 37  1  0
 10 38  1  0
 11 39  1  0
 11 40  1  0
 12 41  1  0
 12 42  1  0
 13 43  1  6
 14 44  1  0
 14 45  1  0
 17 46  1  1
 18 47  1  0
 19 48  1  1
 20 49  1  0
 20 50  1  0
M  END
$$$$
