
     RDKit          2D

 62 67  0  0  0  0  0  0  0  0999 V2000
   -1.7321   -7.3644    0.0000 C   0  0  0  0  0  0  0  0  0  0  0  0
   -2.1623   -5.9274    0.0000 C   0  0  0  0  0  0  0  0  0  0  0  0
   -2.5926   -4.4904    0.0000 C   0  0  0  0  0  0  0  0  0  0  0  0
   -1.0926   -4.4904    0.0000 C   0  0  0  0  0  0  0  0  0  0  0  0
    0.0565   -3.5262    0.0000 C   0  0  0  0  0  0  0  0  0  0  0  0
    0.3170   -2.0490    0.0000 C   0  0  0  0  0  0  0  0  0  0  0  0
   -0.4330   -0.7500    0.0000 C   0  0  0  0  0  0  0  0  0  0  0  0
   -1.7321   -1.5000    0.0000 N   0  0  0  0  0  0  0  0  0  0  0  0
   -3.0311   -0.7500    0.0000 C   0  0  0  0  0  0  0  0  0  0  0  0
   -3.0311    0.7500    0.0000 C   0  0  0  0  0  0  0  0  0  0  0  0
   -1.7321    1.5000    0.0000 C   0  0  0  0  0  0  0  0  0  0  0  0
   -0.4330    2.2500    0.0000 C   0  0  0  0  0  0  0  0  0  0  0  0
   -0.9460    3.6595    0.0000 F   0  0  0  0  0  0  0  0  0  0  0  0
   -0.4330    0.7500    0.0000 C   0  0  0  0  0  0  0  0  0  0  0  0
    0.8660    0.0000    0.0000 O   0  0  0  0  0  0  0  0  0  0  0  0
   -4.0021   -2.0490    0.0000 C   0  0  0  0  0  0  0  0  0  0  0  0
   -5.4793   -2.3095    0.0000 C   0  0  0  0  0  0  0  0  0  0  0  0
   -5.2188   -3.7867    0.0000 C   0  0  0  0  0  0  0  0  0  0  0  0
   -4.9584   -5.2639    0.0000 C   0  0  0  0  0  0  0  0  0  0  0  0
   -4.6979   -6.7411    0.0000 C   0  0  0  0  0  0  0  0  0  0  0  0
   -6.1958   -6.8196    0.0000 Br  0  0  0  0  0  0  0  0  0  0  0  0
   -4.4374   -8.2184    0.0000 C   0  0  0  0  0  0  0  0  0  0  0  0
   -4.1769   -9.6956    0.0000 C   0  0  0  0  0  0  0  0  0  0  0  0
   -5.9146   -8.4788    0.0000 C   0  0  0  0  0  0  0  0  0  0  0  0
   -7.2137   -9.2288    0.0000 C   0  0  0  0  0  0  0  0  0  0  0  0
   -5.9146   -9.9788    0.0000 C   0  0  0  0  0  0  0  0  0  0  0  0
   -3.7416   -3.5262    0.0000 C   0  0  0  0  0  0  0  0  0  0  0  0
   -1.3019   -8.8014    0.0000 H   0  0  0  0  0  0  0  0  0  0  0  0
   -3.1060   -7.9666    0.0000 H   0  0  0  0  0  0  0  0  0  0  0  0
   -0.2952   -6.9342    0.0000 H   0  0  0  0  0  0  0  0  0  0  0  0
   -1.3660   -5.8904    0.0000 H   0  0  0  0  0  0  0  0  0  0  0  0
   -3.5362   -6.5296    0.0000 H   0  0  0  0  0  0  0  0  0  0  0  0
   -3.7360   -5.4613    0.0000 H   0  0  0  0  0  0  0  0  0  0  0  0
    0.1607   -5.3147    0.0000 H   0  0  0  0  0  0  0  0  0  0  0  0
   -1.0323   -5.2853    0.0000 H   0  0  0  0  0  0  0  0  0  0  0  0
    1.5565   -3.5350    0.0000 H   0  0  0  0  0  0  0  0  0  0  0  0
    0.8141   -4.8209    0.0000 H   0  0  0  0  0  0  0  0  0  0  0  0
    1.3463   -0.9580    0.0000 H   0  0  0  0  0  0  0  0  0  0  0  0
    1.7295   -2.5538    0.0000 H   0  0  0  0  0  0  0  0  0  0  0  0
   -1.5492   -2.9888    0.0000 H   0  0  0  0  0  0  0  0  0  0  0  0
   -4.2290   -1.6528    0.0000 H   0  0  0  0  0  0  0  0  0  0  0  0
   -3.5441    2.1595    0.0000 H   0  0  0  0  0  0  0  0  0  0  0  0
   -4.5083    0.4895    0.0000 H   0  0  0  0  0  0  0  0  0  0  0  0
   -2.4821    2.7990    0.0000 H   0  0  0  0  0  0  0  0  0  0  0  0
    1.0442    2.5105    0.0000 H   0  0  0  0  0  0  0  0  0  0  0  0
   -4.8625   -0.8203    0.0000 H   0  0  0  0  0  0  0  0  0  0  0  0
   -6.9565   -2.5700    0.0000 H   0  0  0  0  0  0  0  0  0  0  0  0
   -5.9179   -0.8751    0.0000 H   0  0  0  0  0  0  0  0  0  0  0  0
   -6.6960   -4.0472    0.0000 H   0  0  0  0  0  0  0  0  0  0  0  0
   -6.4356   -5.5244    0.0000 H   0  0  0  0  0  0  0  0  0  0  0  0
   -3.4604   -5.1855    0.0000 H   0  0  0  0  0  0  0  0  0  0  0  0
   -3.1999   -6.6627    0.0000 H   0  0  0  0  0  0  0  0  0  0  0  0
   -2.9395   -8.1399    0.0000 H   0  0  0  0  0  0  0  0  0  0  0  0
   -3.9165  -11.1728    0.0000 H   0  0  0  0  0  0  0  0  0  0  0  0
   -5.5472  -10.3057    0.0000 H   0  0  0  0  0  0  0  0  0  0  0  0
   -2.6997   -9.4351    0.0000 H   0  0  0  0  0  0  0  0  0  0  0  0
   -6.5956   -7.1423    0.0000 H   0  0  0  0  0  0  0  0  0  0  0  0
   -8.1778   -8.0798    0.0000 H   0  0  0  0  0  0  0  0  0  0  0  0
   -8.1778  -10.3779    0.0000 H   0  0  0  0  0  0  0  0  0  0  0  0
   -6.4277  -11.3884    0.0000 H   0  0  0  0  0  0  0  0  0  0  0  0
   -4.5443  -10.5890    0.0000 H   0  0  0  0  0  0  0  0  0  0  0  0
   -2.3150   -3.0628    0.0000 H   0  0  0  0  0  0  0  0  0  0  0  0
  1  2  1  0
  2  3  1  0
  3  4  1  0
  4  5  1  0
  5  6  1  0
  6  7  1  0
  7  8  1  0
  8  9  1  0
  9 10  1  0
 10 11  1  0
 11 12  1  0
 12 13  1  0
 12 14  1  0
 14 15  1  0
  9 16  1  0
 16 17  1  0
 17 18  1  0
 18 19  1  0
 19 20  1  0
 20 21  1  0
 20 22  1  0
 22 23  1  0
 22 24  1  0
 24 25  1  0
 25 26  1  0
 18 27  1  0
 27  3  1  0
 14  7  1  0
 27 16  1  0
 15  7  1  0
 26 24  1  0
 14 11  1  0
  1 28  1  0
  1 29  1  0
  1 30  1  0
  2 31  1  0
  2 32  1  0
  3 33  1  0
  4 34  1  0
  4 35  1  0
  5 36  1  0
  5 37  1  0
  6 38  1  0
  6 39  1  0
  8 40  1  0
  9 41  1  0
 10 42  1  0
 10 43  1  0
 11 44  1  0
 12 45  1  0
 16 46  1  0
 17 47  1  0
 17 48  1  0
 18 49  1  0
 19 50  1  0
 19 51  1  0
 20 52  1  0
 22 53  1  0
 23 54  1  0
 23 55  1  0
 23 56  1  0
 24 57  1  0
 25 58  1  0
 25 59  1  0
 26 60  1  0
 26 61  1  0
 27 62  1  0
M  END
$$$$
