
     RDKit          2D

105114  0  0  0  0  0  0  0  0999 V2000
   -1.1236   -5.2764    0.0000 C   0  0  0  0  0  0  0  0  0  0  0  0
   -1.6084   -3.8569    0.0000 C   0  0  0  0  0  0  0  0  0  0  0  0
   -2.8845   -4.6454    0.0000 C   0  0  0  0  0  0  0  0  0  0  0  0
   -4.2965   -4.1394    0.0000 C   0  0  0  0  0  0  0  0  0  0  0  0
   -5.4720   -4.8080    0.0000 C   0  0  0  0  0  0  0  0  0  0  0  0
   -6.3597   -4.9013    0.0000 C   0  0  0  0  0  0  0  0  0  0  0  0
   -7.6486   -4.4917    0.0000 C   0  0  0  0  0  0  0  0  0  0  0  0
   -9.0680   -4.9765    0.0000 C   0  0  0  0  0  0  0  0  0  0  0  0
   -8.3864   -5.7236    0.0000 C   0  0  0  0  0  0  0  0  0  0  0  0
   -8.9782   -7.1019    0.0000 C   0  0  0  0  0  0  0  0  0  0  0  0
  -10.0057   -8.1947    0.0000 C   0  0  0  0  0  0  0  0  0  0  0  0
  -10.4384   -6.7585    0.0000 C   0  0  0  0  0  0  0  0  0  0  0  0
  -11.9279   -6.9351    0.0000 O   0  0  0  0  0  0  0  0  0  0  0  0
   -7.2082   -6.6519    0.0000 C   0  0  0  0  0  0  0  0  0  0  0  0
   -5.7187   -6.4753    0.0000 C   0  0  0  0  0  0  0  0  0  0  0  0
   -4.7903   -5.2971    0.0000 C   0  0  0  0  0  0  0  0  0  0  0  0
   -3.4913   -6.0471    0.0000 C   0  0  0  0  0  0  0  0  0  0  0  0
   -1.9995   -5.8903    0.0000 C   0  0  0  0  0  0  0  0  0  0  0  0
   -0.8848   -4.8866    0.0000 C   0  0  0  0  0  0  0  0  0  0  0  0
   -0.5729   -3.4194    0.0000 C   0  0  0  0  0  0  0  0  0  0  0  0
   -1.1830   -2.0490    0.0000 C   0  0  0  0  0  0  0  0  0  0  0  0
   -0.4330   -0.7500    0.0000 C   0  0  0  0  0  0  0  0  0  0  0  0
   -0.4330    0.7500    0.0000 C   0  0  0  0  0  0  0  0  0  0  0  0
    0.8660    0.0000    0.0000 C   0  0  0  0  0  0  0  0  0  0  0  0
    1.8302    1.1491    0.0000 N   0  0  0  0  0  0  0  0  0  0  0  0
    1.3172    2.5586    0.0000 S   0  0  0  0  0  0  0  0  0  0  0  0
    3.3074    0.8886    0.0000 C   0  0  0  0  0  0  0  0  0  0  0  0
    4.7846    0.6281    0.0000 C   0  0  0  0  0  0  0  0  0  0  0  0
    5.2977   -0.7814    0.0000 S   0  0  0  0  0  0  0  0  0  0  0  0
   -1.7321    0.0000    0.0000 C   0  0  0  0  0  0  0  0  0  0  0  0
   -2.4821   -1.2990    0.0000 C   0  0  0  0  0  0  0  0  0  0  0  0
   -1.4294   -2.3676    0.0000 C   0  0  0  0  0  0  0  0  0  0  0  0
   -3.9738   -1.4558    0.0000 C   0  0  0  0  0  0  0  0  0  0  0  0
   -5.0886   -2.4595    0.0000 C   0  0  0  0  0  0  0  0  0  0  0  0
   -5.4004   -3.9267    0.0000 C   0  0  0  0  0  0  0  0  0  0  0  0
   -6.8998   -3.9697    0.0000 C   0  0  0  0  0  0  0  0  0  0  0  0
   -7.4695   -3.0024    0.0000 C   0  0  0  0  0  0  0  0  0  0  0  0
   -6.1934   -2.2139    0.0000 C   0  0  0  0  0  0  0  0  0  0  0  0
   -4.7814   -2.7199    0.0000 C   0  0  0  0  0  0  0  0  0  0  0  0
   -0.7860   -6.7720    0.0000 C   0  0  0  0  0  0  0  0  0  0  0  0
   -2.1563   -7.3821    0.0000 C   0  0  0  0  0  0  0  0  0  0  0  0
   -1.7934   -8.8375    0.0000 C   0  0  0  0  0  0  0  0  0  0  0  0
   -3.2488   -9.2004    0.0000 N   0  0  0  0  0  0  0  0  0  0  0  0
   -1.4305  -10.2929    0.0000 C   0  0  0  0  0  0  0  0  0  0  0  0
   -1.0676  -11.7484    0.0000 O   0  0  0  0  0  0  0  0  0  0  0  0
   -0.4694   -6.6262    0.0000 H   0  0  0  0  0  0  0  0  0  0  0  0
    0.3710   -5.1494    0.0000 H   0  0  0  0  0  0  0  0  0  0  0  0
   -2.2750   -6.2378    0.0000 H   0  0  0  0  0  0  0  0  0  0  0  0
   -0.1596   -4.2452    0.0000 H   0  0  0  0  0  0  0  0  0  0  0  0
   -3.1852   -6.1149    0.0000 H   0  0  0  0  0  0  0  0  0  0  0  0
   -2.2847   -6.0203    0.0000 H   0  0  0  0  0  0  0  0  0  0  0  0
   -5.7061   -4.6525    0.0000 H   0  0  0  0  0  0  0  0  0  0  0  0
   -3.9672   -6.3820    0.0000 H   0  0  0  0  0  0  0  0  0  0  0  0
   -5.1003   -6.9035    0.0000 H   0  0  0  0  0  0  0  0  0  0  0  0
   -6.1110   -6.9798    0.0000 H   0  0  0  0  0  0  0  0  0  0  0  0
   -7.5044   -6.7538    0.0000 H   0  0  0  0  0  0  0  0  0  0  0  0
  -10.5627   -5.1035    0.0000 H   0  0  0  0  0  0  0  0  0  0  0  0
   -9.5529   -3.5570    0.0000 H   0  0  0  0  0  0  0  0  0  0  0  0
   -9.1242   -6.4755    0.0000 H   0  0  0  0  0  0  0  0  0  0  0  0
   -9.8710   -5.5087    0.0000 H   0  0  0  0  0  0  0  0  0  0  0  0
   -7.8331   -8.0709    0.0000 H   0  0  0  0  0  0  0  0  0  0  0  0
   -9.1079   -9.3964    0.0000 H   0  0  0  0  0  0  0  0  0  0  0  0
  -11.3450   -8.8702    0.0000 H   0  0  0  0  0  0  0  0  0  0  0  0
  -10.7186   -5.2849    0.0000 H   0  0  0  0  0  0  0  0  0  0  0  0
  -12.8257   -5.7335    0.0000 H   0  0  0  0  0  0  0  0  0  0  0  0
   -6.8260   -8.1024    0.0000 H   0  0  0  0  0  0  0  0  0  0  0  0
   -8.0082   -7.9208    0.0000 H   0  0  0  0  0  0  0  0  0  0  0  0
   -4.5245   -7.3830    0.0000 H   0  0  0  0  0  0  0  0  0  0  0  0
   -5.7510   -7.9749    0.0000 H   0  0  0  0  0  0  0  0  0  0  0  0
   -5.3032   -6.7067    0.0000 H   0  0  0  0  0  0  0  0  0  0  0  0
   -3.4129   -7.5450    0.0000 H   0  0  0  0  0  0  0  0  0  0  0  0
   -4.3300   -7.2907    0.0000 H   0  0  0  0  0  0  0  0  0  0  0  0
    0.6070   -4.7298    0.0000 H   0  0  0  0  0  0  0  0  0  0  0  0
    0.2973   -5.8099    0.0000 H   0  0  0  0  0  0  0  0  0  0  0  0
    0.6558   -2.5590    0.0000 H   0  0  0  0  0  0  0  0  0  0  0  0
    0.8690   -3.8327    0.0000 H   0  0  0  0  0  0  0  0  0  0  0  0
   -2.1270   -3.2148    0.0000 H   0  0  0  0  0  0  0  0  0  0  0  0
   -0.4330    2.2500    0.0000 H   0  0  0  0  0  0  0  0  0  0  0  0
    1.8302   -1.1491    0.0000 H   0  0  0  0  0  0  0  0  0  0  0  0
    2.2814    3.7077    0.0000 H   0  0  0  0  0  0  0  0  0  0  0  0
    3.0469   -0.5886    0.0000 H   0  0  0  0  0  0  0  0  0  0  0  0
    3.5679    2.3658    0.0000 H   0  0  0  0  0  0  0  0  0  0  0  0
    5.7488    1.7772    0.0000 H   0  0  0  0  0  0  0  0  0  0  0  0
   -2.7927    1.0607    0.0000 H   0  0  0  0  0  0  0  0  0  0  0  0
   -0.0173   -2.8736    0.0000 H   0  0  0  0  0  0  0  0  0  0  0  0
   -0.9517   -0.9457    0.0000 H   0  0  0  0  0  0  0  0  0  0  0  0
   -3.5423   -2.8924    0.0000 H   0  0  0  0  0  0  0  0  0  0  0  0
   -6.5739   -2.2507    0.0000 H   0  0  0  0  0  0  0  0  0  0  0  0
   -5.5271   -1.0251    0.0000 H   0  0  0  0  0  0  0  0  0  0  0  0
   -6.8099   -4.4399    0.0000 H   0  0  0  0  0  0  0  0  0  0  0  0
   -6.1840   -5.2879    0.0000 H   0  0  0  0  0  0  0  0  0  0  0  0
   -8.0257   -4.9609    0.0000 H   0  0  0  0  0  0  0  0  0  0  0  0
   -8.7335   -2.1949    0.0000 H   0  0  0  0  0  0  0  0  0  0  0  0
   -7.2461   -1.1454    0.0000 H   0  0  0  0  0  0  0  0  0  0  0  0
   -5.5460   -0.8608    0.0000 H   0  0  0  0  0  0  0  0  0  0  0  0
   -3.2816   -2.7461    0.0000 H   0  0  0  0  0  0  0  0  0  0  0  0
    0.4120   -5.8693    0.0000 H   0  0  0  0  0  0  0  0  0  0  0  0
    0.1982   -7.9040    0.0000 H   0  0  0  0  0  0  0  0  0  0  0  0
   -3.6287   -7.6683    0.0000 H   0  0  0  0  0  0  0  0  0  0  0  0
   -0.3046   -8.6547    0.0000 H   0  0  0  0  0  0  0  0  0  0  0  0
   -3.8350  -10.5811    0.0000 H   0  0  0  0  0  0  0  0  0  0  0  0
   -4.4146   -8.2564    0.0000 H   0  0  0  0  0  0  0  0  0  0  0  0
   -2.8309  -10.8305    0.0000 H   0  0  0  0  0  0  0  0  0  0  0  0
    0.0249   -9.9301    0.0000 H   0  0  0  0  0  0  0  0  0  0  0  0
    0.3743  -12.1618    0.0000 H   0  0  0  0  0  0  0  0  0  0  0  0
  1  2  1  0
  2  3  1  0
  3  4  1  0
  4  5  1  0
  5  6  1  0
  6  7  1  0
  7  8  1  1
  7  9  1  0
  9 10  1  0
 10 11  1  0
 11 12  1  0
 12 13  1  0
  9 14  1  0
 14 15  1  0
 15 16  1  0
 16 17  1  0
 18 17  1  1
 18 19  1  0
 19 20  1  0
 20 21  1  0
 21 22  1  0
 22 23  1  0
 23 24  1  0
 24 25  1  0
 25 26  1  0
 25 27  1  0
 27 28  1  0
 28 29  2  0
 23 30  1  0
 30 31  1  0
 31 32  1  6
 31 33  1  0
 33 34  1  0
 34 35  1  0
 35 36  1  0
 36 37  1  0
 37 38  1  0
 38 39  1  0
 18 40  1  0
 40 41  1  0
 41 42  1  0
 42 43  1  0
 42 44  1  0
 44 45  1  0
 32  2  1  0
 39 33  1  0
 39  4  1  0
 37  7  1  0
 12 10  1  0
 35 16  1  0
 41 18  1  0
 31 21  1  0
 22 24  1  6
 30 22  1  0
  1 46  1  0
  1 47  1  0
  1 48  1  0
  2 49  1  1
  3 50  1  0
  3 51  1  0
  4 52  1  6
  5 53  1  0
  5 54  1  0
  6 55  1  0
  6 56  1  0
  8 57  1  0
  8 58  1  0
  8 59  1  0
  9 60  1  6
 10 61  1  6
 11 62  1  0
 11 63  1  0
 12 64  1  1
 13 65  1  0
 14 66  1  0
 14 67  1  0
 15 68  1  0
 15 69  1  0
 16 70  1  6
 17 71  1  0
 17 72  1  0
 19 73  1  0
 19 74  1  0
 20 75  1  0
 20 76  1  0
 21 77  1  1
 23 78  1  1
 24 79  1  1
 26 80  1  0
 27 81  1  0
 27 82  1  0
 28 83  1  0
 30 84  1  6
 32 85  1  0
 32 86  1  0
 33 87  1  6
 34 88  1  0
 34 89  1  0
 35 90  1  1
 36 91  1  0
 36 92  1  0
 37 93  1  6
 38 94  1  0
 38 95  1  0
 39 96  1  6
 40 97  1  0
 40 98  1  0
 41 99  1  6
 42100  1  6
 43101  1  0
 43102  1  0
 44103  1  0
 44104  1  0
 45105  1  0
M  END
$$$$
