
     RDKit          2D

102114  0  0  0  0  0  0  0  0999 V2000
    5.4818    4.6036    0.0000 C   0  0  0  0  0  0  0  0  0  0  0  0
    4.1827    3.8536    0.0000 C   0  0  0  0  0  0  0  0  0  0  0  0
    2.8837    3.1036    0.0000 C   0  0  0  0  0  0  0  0  0  0  0  0
    3.7654    1.8901    0.0000 C   0  0  0  0  0  0  0  0  0  0  0  0
    4.8801    0.8864    0.0000 N   0  0  0  0  0  0  0  0  0  0  0  0
    6.3067    1.3499    0.0000 C   0  0  0  0  0  0  0  0  0  0  0  0
    2.8837    0.6766    0.0000 C   0  0  0  0  0  0  0  0  0  0  0  0
    1.4571    1.1401    0.0000 C   0  0  0  0  0  0  0  0  0  0  0  0
    1.4571    2.6401    0.0000 C   0  0  0  0  0  0  0  0  0  0  0  0
    2.4202   -0.7500    0.0000 C   0  0  0  0  0  0  0  0  0  0  0  0
    3.3018   -1.9635    0.0000 C   0  0  0  0  0  0  0  0  0  0  0  0
    4.8018   -1.9635    0.0000 C   0  0  0  0  0  0  0  0  0  0  0  0
    6.3018   -1.9635    0.0000 C   0  0  0  0  0  0  0  0  0  0  0  0
    4.8018   -3.4635    0.0000 C   0  0  0  0  0  0  0  0  0  0  0  0
    5.2654   -4.8901    0.0000 C   0  0  0  0  0  0  0  0  0  0  0  0
    4.0518   -5.7718    0.0000 N   0  0  0  0  0  0  0  0  0  0  0  0
    2.8383   -4.8901    0.0000 C   0  0  0  0  0  0  0  0  0  0  0  0
    3.3018   -3.4635    0.0000 C   0  0  0  0  0  0  0  0  0  0  0  0
    2.0087   -4.1107    0.0000 C   0  0  0  0  0  0  0  0  0  0  0  0
    0.9936   -4.4406    0.0000 C   0  0  0  0  0  0  0  0  0  0  0  0
   -0.0216   -4.1107    0.0000 C   0  0  0  0  0  0  0  0  0  0  0  0
   -0.6490   -3.2472    0.0000 O   0  0  0  0  0  0  0  0  0  0  0  0
   -1.3147   -1.9635    0.0000 C   0  0  0  0  0  0  0  0  0  0  0  0
   -2.7413   -2.4271    0.0000 C   0  0  0  0  0  0  0  0  0  0  0  0
   -3.8560   -3.4307    0.0000 C   0  0  0  0  0  0  0  0  0  0  0  0
   -3.0611   -4.7028    0.0000 C   0  0  0  0  0  0  0  0  0  0  0  0
   -4.1679   -1.9635    0.0000 C   0  0  0  0  0  0  0  0  0  0  0  0
   -5.0495   -0.7500    0.0000 C   0  0  0  0  0  0  0  0  0  0  0  0
   -5.0495    0.7500    0.0000 C   0  0  0  0  0  0  0  0  0  0  0  0
   -6.5413    0.9068    0.0000 C   0  0  0  0  0  0  0  0  0  0  0  0
   -5.6596    2.1203    0.0000 C   0  0  0  0  0  0  0  0  0  0  0  0
   -4.1679    1.9635    0.0000 C   0  0  0  0  0  0  0  0  0  0  0  0
   -2.7413    2.4271    0.0000 C   0  0  0  0  0  0  0  0  0  0  0  0
   -1.6266    3.4307    0.0000 C   0  0  0  0  0  0  0  0  0  0  0  0
   -1.3147    1.9635    0.0000 C   0  0  0  0  0  0  0  0  0  0  0  0
   -0.4330    0.7500    0.0000 C   0  0  0  0  0  0  0  0  0  0  0  0
    0.1660    0.0000    0.0000 O   0  0  0  0  0  0  0  0  0  0  0  0
   -0.4330   -0.7500    0.0000 C   0  0  0  0  0  0  0  0  0  0  0  0
    0.9936   -0.2865    0.0000 C   0  0  0  0  0  0  0  0  0  0  0  0
    2.4751   -0.0518    0.0000 C   0  0  0  0  0  0  0  0  0  0  0  0
    2.6815   -6.3819    0.0000 C   0  0  0  0  0  0  0  0  0  0  0  0
    1.1852   -6.4865    0.0000 C   0  0  0  0  0  0  0  0  0  0  0  0
    3.0444   -7.8373    0.0000 C   0  0  0  0  0  0  0  0  0  0  0  0
    3.4073   -9.2928    0.0000 C   0  0  0  0  0  0  0  0  0  0  0  0
    6.7808    5.3536    0.0000 H   0  0  0  0  0  0  0  0  0  0  0  0
    6.0678    3.2229    0.0000 H   0  0  0  0  0  0  0  0  0  0  0  0
    4.7318    5.9027    0.0000 H   0  0  0  0  0  0  0  0  0  0  0  0
    4.6625    3.2170    0.0000 H   0  0  0  0  0  0  0  0  0  0  0  0
    3.4327    5.1527    0.0000 H   0  0  0  0  0  0  0  0  0  0  0  0
    2.2736    4.4740    0.0000 H   0  0  0  0  0  0  0  0  0  0  0  0
    4.4184    2.3473    0.0000 H   0  0  0  0  0  0  0  0  0  0  0  0
    4.3917   -0.5319    0.0000 H   0  0  0  0  0  0  0  0  0  0  0  0
    7.7332    1.8135    0.0000 H   0  0  0  0  0  0  0  0  0  0  0  0
    6.5928   -0.1225    0.0000 H   0  0  0  0  0  0  0  0  0  0  0  0
    5.6727    2.7094    0.0000 H   0  0  0  0  0  0  0  0  0  0  0  0
    4.3453    0.3392    0.0000 H   0  0  0  0  0  0  0  0  0  0  0  0
    0.1581    1.8902    0.0000 H   0  0  0  0  0  0  0  0  0  0  0  0
    0.3601    3.6631    0.0000 H   0  0  0  0  0  0  0  0  0  0  0  0
    3.9828   -0.6270    0.0000 H   0  0  0  0  0  0  0  0  0  0  0  0
    4.9847   -0.4747    0.0000 H   0  0  0  0  0  0  0  0  0  0  0  0
    7.8018   -1.9635    0.0000 H   0  0  0  0  0  0  0  0  0  0  0  0
    6.6648   -3.4189    0.0000 H   0  0  0  0  0  0  0  0  0  0  0  0
    6.1190   -0.4747    0.0000 H   0  0  0  0  0  0  0  0  0  0  0  0
    6.3009   -3.4112    0.0000 H   0  0  0  0  0  0  0  0  0  0  0  0
    6.6998   -4.4516    0.0000 H   0  0  0  0  0  0  0  0  0  0  0  0
    6.0154   -6.1891    0.0000 H   0  0  0  0  0  0  0  0  0  0  0  0
    1.3440   -4.7594    0.0000 H   0  0  0  0  0  0  0  0  0  0  0  0
    2.2373   -6.1659    0.0000 H   0  0  0  0  0  0  0  0  0  0  0  0
    3.9165   -4.7816    0.0000 H   0  0  0  0  0  0  0  0  0  0  0  0
    0.1119   -6.3541    0.0000 H   0  0  0  0  0  0  0  0  0  0  0  0
    1.3817   -6.5895    0.0000 H   0  0  0  0  0  0  0  0  0  0  0  0
   -1.8596   -5.1406    0.0000 H   0  0  0  0  0  0  0  0  0  0  0  0
   -0.7960   -6.1325    0.0000 H   0  0  0  0  0  0  0  0  0  0  0  0
   -1.8765   -3.3543    0.0000 H   0  0  0  0  0  0  0  0  0  0  0  0
   -2.3279   -3.8690    0.0000 H   0  0  0  0  0  0  0  0  0  0  0  0
   -5.2468   -3.9927    0.0000 H   0  0  0  0  0  0  0  0  0  0  0  0
   -2.2662   -5.9749    0.0000 H   0  0  0  0  0  0  0  0  0  0  0  0
   -4.3332   -5.4977    0.0000 H   0  0  0  0  0  0  0  0  0  0  0  0
   -1.5648   -4.5983    0.0000 H   0  0  0  0  0  0  0  0  0  0  0  0
   -5.4536   -2.7361    0.0000 H   0  0  0  0  0  0  0  0  0  0  0  0
   -6.5220   -0.4638    0.0000 H   0  0  0  0  0  0  0  0  0  0  0  0
   -6.0726   -1.8470    0.0000 H   0  0  0  0  0  0  0  0  0  0  0  0
   -7.1275   -0.4739    0.0000 H   0  0  0  0  0  0  0  0  0  0  0  0
   -7.8895    1.5643    0.0000 H   0  0  0  0  0  0  0  0  0  0  0  0
   -6.2697    3.4906    0.0000 H   0  0  0  0  0  0  0  0  0  0  0  0
   -4.5053    3.4251    0.0000 H   0  0  0  0  0  0  0  0  0  0  0  0
   -3.3273    3.8078    0.0000 H   0  0  0  0  0  0  0  0  0  0  0  0
   -2.4214    4.7028    0.0000 H   0  0  0  0  0  0  0  0  0  0  0  0
   -0.3146    4.1580    0.0000 H   0  0  0  0  0  0  0  0  0  0  0  0
   -0.0290    2.7361    0.0000 H   0  0  0  0  0  0  0  0  0  0  0  0
    0.5707    1.8647    0.0000 H   0  0  0  0  0  0  0  0  0  0  0  0
    3.9566    0.1828    0.0000 H   0  0  0  0  0  0  0  0  0  0  0  0
    3.0613   -1.4325    0.0000 H   0  0  0  0  0  0  0  0  0  0  0  0
    2.2405    1.4297    0.0000 H   0  0  0  0  0  0  0  0  0  0  0  0
   -0.2414   -6.9501    0.0000 H   0  0  0  0  0  0  0  0  0  0  0  0
    1.1066   -7.9845    0.0000 H   0  0  0  0  0  0  0  0  0  0  0  0
    0.5511   -5.1271    0.0000 H   0  0  0  0  0  0  0  0  0  0  0  0
    1.6440   -8.3749    0.0000 H   0  0  0  0  0  0  0  0  0  0  0  0
    4.4998   -7.4745    0.0000 H   0  0  0  0  0  0  0  0  0  0  0  0
    3.7702  -10.7482    0.0000 H   0  0  0  0  0  0  0  0  0  0  0  0
    4.8627   -8.9299    0.0000 H   0  0  0  0  0  0  0  0  0  0  0  0
    1.9518   -9.6557    0.0000 H   0  0  0  0  0  0  0  0  0  0  0  0
  1  2  1  0
  2  3  1  0
  3  4  1  0
  4  5  1  0
  5  6  1  0
  4  7  1  0
  7  8  1  0
  8  9  1  0
  9 10  1  0
 10 11  1  0
 11 12  1  0
 12 13  1  0
 12 14  1  0
 14 15  1  0
 15 16  1  0
 16 17  1  0
 17 18  1  0
 18 19  1  0
 19 20  1  0
 20 21  1  0
 21 22  1  0
 22 23  1  0
 23 24  1  0
 24 25  1  0
 25 26  1  0
 25 27  1  0
 27 28  1  0
 28 29  1  0
 29 30  1  0
 30 31  1  0
 31 32  1  0
 32 33  1  0
 33 34  1  0
 34 35  1  0
 35 36  1  0
 36 37  1  0
 37 38  1  0
 38 39  1  0
 39 40  1  0
 17 41  1  0
 41 42  1  0
 41 43  1  0
 43 44  1  0
  9  3  1  0
 39 10  1  0
 10  7  1  0
 18 11  1  0
 38 23  1  0
 39  8  1  0
 18 14  1  0
 27 24  1  0
 31 29  1  0
 35 33  1  0
 38 36  1  0
 41 16  1  0
 32 29  1  0
  1 45  1  0
  1 46  1  0
  1 47  1  0
  2 48  1  0
  2 49  1  0
  3 50  1  0
  4 51  1  0
  5 52  1  0
  6 53  1  0
  6 54  1  0
  6 55  1  0
  7 56  1  0
  8 57  1  0
  9 58  1  0
 11 59  1  0
 12 60  1  0
 13 61  1  0
 13 62  1  0
 13 63  1  0
 14 64  1  0
 15 65  1  0
 15 66  1  0
 17 67  1  0
 19 68  1  0
 19 69  1  0
 20 70  1  0
 20 71  1  0
 21 72  1  0
 21 73  1  0
 23 74  1  0
 24 75  1  0
 25 76  1  0
 26 77  1  0
 26 78  1  0
 26 79  1  0
 27 80  1  0
 28 81  1  0
 28 82  1  0
 30 83  1  0
 30 84  1  0
 31 85  1  0
 32 86  1  0
 33 87  1  0
 34 88  1  0
 34 89  1  0
 35 90  1  0
 36 91  1  0
 40 92  1  0
 40 93  1  0
 40 94  1  0
 42 95  1  0
 42 96  1  0
 42 97  1  0
 43 98  1  0
 43 99  1  0
 44100  1  0
 44101  1  0
 44102  1  0
M  END
$$$$
