
     RDKit          3D

 45 55  0  0  0  0  0  0  0  0999 V2000
   13.4731  -28.4358  -10.1435 C   0  0  0  0  0  0  0  0  0  0  0  0
   14.2104  -31.3018   -9.5192 C   0  0  0  0  0  0  0  0  0  0  0  0
   14.8635  -30.6968  -13.5216 C   0  0  0  0  0  0  0  0  0  0  0  0
   10.6142  -28.1049  -15.6200 C   0  0  0  0  0  0  0  0  0  0  0  0
   10.9203  -26.6889  -13.6254 C   0  0  0  0  0  0  0  0  0  0  0  0
    8.6577  -29.7129  -11.2521 C   0  0  0  0  0  0  0  0  0  0  0  0
   21.6665  -31.4422  -13.8310 N   0  0  0  0  0  0  0  0  0  0  0  0
   19.1371  -26.5766   -9.7498 C   0  0  0  0  0  0  0  0  0  0  0  0
   15.1878  -29.5876  -10.4033 C   0  0  0  0  0  0  0  0  0  0  0  0
   16.8357  -27.1745   -7.3870 C   0  0  0  0  0  0  0  0  0  0  0  0
   21.6590  -30.3887  -13.0328 O   0  0  0  0  0  0  0  0  0  0  0  0
   18.9892  -30.7354  -13.6602 C   0  0  0  0  0  0  0  0  0  0  0  0
   12.8187  -33.6876  -10.3404 C   0  0  0  0  0  0  0  0  0  0  0  0
   18.3529  -28.3782  -13.5532 C   0  0  0  0  0  0  0  0  0  0  0  0
   19.4819  -28.9312  -10.4634 C   0  0  0  0  0  0  0  0  0  0  0  0
   16.4892  -32.3461  -13.5964 C   0  0  0  0  0  0  0  0  0  0  0  0
   11.9184  -31.7081  -14.1468 C   0  0  0  0  0  0  0  0  0  0  0  0
   17.2707  -33.1019  -16.3639 C   0  0  0  0  0  0  0  0  0  0  0  0
   14.7095  -29.0066   -9.7372 C   0  0  0  0  0  0  0  0  0  0  0  0
   11.9029  -31.0717  -12.9771 N   0  0  0  0  0  0  0  0  0  0  0  0
   19.6185  -34.0287  -27.7176 C   0  0  0  0  0  0  0  0  0  0  0  0
   19.5567  -35.0369  -20.5688 C   0  0  0  0  0  0  0  0  0  0  0  0
   11.7682  -31.5889  -10.1776 C   0  0  0  0  0  0  0  0  0  0  0  0
   14.2922  -32.6005  -10.8079 C   0  0  0  0  0  0  0  0  0  0  0  0
   16.6497  -28.8139  -13.0523 C   0  0  0  0  0  0  0  0  0  0  0  0
    8.2747  -28.4587  -13.2844 C   0  0  0  0  0  0  0  0  0  0  0  0
   20.5669  -34.3679  -19.7513 C   0  0  0  0  0  0  0  0  0  0  0  0
   12.8131  -30.4935   -9.2059 C   0  0  0  0  0  0  0  0  0  0  0  0
   22.5206  -38.3398  -24.4857 C   0  0  0  0  0  0  0  0  0  0  0  0
   13.1202  -28.9545  -13.1847 C   0  0  0  0  0  0  0  0  0  0  0  0
   17.4362  -35.7383  -20.3177 C   0  0  0  0  0  0  0  0  0  0  0  0
   22.7951  -39.4176  -26.8333 C   0  0  0  0  0  0  0  0  0  0  0  0
   20.4751  -28.5163  -12.5802 C   0  0  0  0  0  0  0  0  0  0  0  0
   17.2252  -30.7531  -12.1673 C   0  0  0  0  0  0  0  0  0  0  0  0
   16.2281  -28.6499   -8.7460 O   0  0  0  0  0  0  0  0  0  0  0  0
   16.5473  -29.6949  -16.6064 C   0  0  0  0  0  0  0  0  0  0  0  0
   21.1873  -33.7299  -32.8162 C   0  0  0  0  0  0  0  0  0  0  0  0
   20.3435  -37.8618  -25.3310 C   0  0  0  0  0  0  0  0  0  0  0  0
   18.6403  -33.6176  -22.1467 C   0  0  0  0  0  0  0  0  0  0  0  0
   23.0984  -32.3368  -32.2031 I   0  0  0  0  0  0  0  0  0  0  0  0
   21.3053  -35.9889  -22.4277 C   0  0  0  0  0  0  0  0  0  0  0  0
   13.5087  -30.0014  -16.2590 C   0  0  0  0  0  0  0  0  0  0  0  0
   18.9226  -29.4456  -14.6267 C   0  0  0  0  0  0  0  0  0  0  0  0
   19.8199  -31.4908   -9.1332 C   0  0  0  0  0  0  0  0  0  0  0  0
   13.1368  -28.4337  -14.2196 C   0  0  0  0  0  0  0  0  0  0  0  0
  5  4  1  0
  9  1  1  0
  9  3  1  0
 10  8  1  0
 11  7  1  0
 12  7  1  0
 14 12  1  0
 15 14  1  0
 16 12  1  0
 18  3  1  0
 19  1  1  0
 19  2  1  0
 20 17  1  0
 23  6  1  0
 23 13  1  0
 24  2  1  0
 24 13  1  0
 24 16  1  0
 25 15  1  0
 26  4  1  0
 26  6  1  0
 27 18  1  0
 27 22  1  0
 28  1  1  0
 28  2  1  0
 28 23  1  0
 30  3  1  0
 31 22  1  0
 32 29  1  0
 33  8  1  0
 33 11  1  0
 34 25  1  0
 35 10  1  0
 35 19  1  0
 36 14  1  0
 37 21  1  0
 38 29  1  0
 39 18  1  0
 39 21  1  0
 39 22  1  0
 40 37  1  0
 41 27  1  0
 41 29  1  0
 42 17  1  0
 42 25  1  0
 42 36  1  0
 43 12  1  0
 43 14  1  0
 43 33  1  0
 43 36  1  0
 44 15  1  0
 44 34  1  0
 45  3  1  0
 45  4  1  0
 45 30  1  0
M  END
$$$$
