
     RDKit          2D

 24 23  0  0  0  0  0  0  0  0999 V2000
    0.0000    0.0000    0.0000 C   0  0  0  0  0  0  0  0  0  0  0  0
    1.2990    0.7500    0.0000 C   0  0  0  0  0  0  0  0  0  0  0  0
    2.5981   -0.0000    0.0000 C   0  0  0  0  0  0  0  0  0  0  0  0
    3.8971   -0.7500    0.0000 C   0  0  0  0  0  0  0  0  0  0  0  0
    5.1962   -1.5000    0.0000 C   0  0  0  0  0  0  0  0  0  0  0  0
    1.2990    2.2500    0.0000 N   0  0  0  0  0  0  0  0  0  0  0  0
    0.0000    3.0000    0.0000 C   0  0  0  0  0  0  0  0  0  0  0  0
   -1.2990    3.7500    0.0000 C   0  0  0  0  0  0  0  0  0  0  0  0
   -2.5981    4.5000    0.0000 O   0  0  0  0  0  0  0  0  0  0  0  0
   -1.2990    0.7500    0.0000 H   0  0  0  0  0  0  0  0  0  0  0  0
   -0.0000   -1.5000    0.0000 H   0  0  0  0  0  0  0  0  0  0  0  0
    3.3481    1.2990    0.0000 H   0  0  0  0  0  0  0  0  0  0  0  0
    1.8481   -1.2990    0.0000 H   0  0  0  0  0  0  0  0  0  0  0  0
    3.1471   -2.0490    0.0000 H   0  0  0  0  0  0  0  0  0  0  0  0
    4.6471    0.5490    0.0000 H   0  0  0  0  0  0  0  0  0  0  0  0
    6.4952   -2.2500    0.0000 H   0  0  0  0  0  0  0  0  0  0  0  0
    5.9462   -0.2010    0.0000 H   0  0  0  0  0  0  0  0  0  0  0  0
    4.4462   -2.7990    0.0000 H   0  0  0  0  0  0  0  0  0  0  0  0
    2.5981    3.0000    0.0000 H   0  0  0  0  0  0  0  0  0  0  0  0
    0.7500    4.2990    0.0000 H   0  0  0  0  0  0  0  0  0  0  0  0
   -0.7500    1.7010    0.0000 H   0  0  0  0  0  0  0  0  0  0  0  0
   -2.0490    2.4510    0.0000 H   0  0  0  0  0  0  0  0  0  0  0  0
   -0.5490    5.0490    0.0000 H   0  0  0  0  0  0  0  0  0  0  0  0
   -2.5981    6.0000    0.0000 H   0  0  0  0  0  0  0  0  0  0  0  0
  1  2  2  3
  2  3  1  0
  3  4  1  0
  4  5  1  0
  2  6  1  0
  6  7  1  0
  7  8  1  0
  8  9  1  0
  1 10  1  0
  1 11  1  0
  3 12  1  0
  3 13  1  0
  4 14  1  0
  4 15  1  0
  5 16  1  0
  5 17  1  0
  5 18  1  0
  6 19  1  0
  7 20  1  0
  7 21  1  0
  8 22  1  0
  8 23  1  0
  9 24  1  0
M  END
$$$$
