
     RDKit          2D

 22 24  0  0  0  0  0  0  0  0999 V2000
   -0.4330    3.7500    0.0000 N   0  0  0  0  0  2  0  0  0  0  0  0
   -0.4330    2.2500    0.0000 C   0  0  0  0  0  0  0  0  0  0  0  0
    1.0670    2.2500    0.0000 N   0  0  0  0  0  2  0  0  0  0  0  0
   -0.4330    0.7500    0.0000 C   0  0  0  0  0  0  0  0  0  0  0  0
    0.8660    0.0000    0.0000 C   0  0  0  0  0  0  0  0  0  0  0  0
   -0.4330   -0.7500    0.0000 C   0  0  0  0  0  0  0  0  0  0  0  0
   -1.7321   -1.5000    0.0000 C   0  0  0  0  0  0  0  0  0  0  0  0
   -1.2190   -2.9095    0.0000 N   0  0  0  0  0  0  0  0  0  0  0  0
   -2.1832   -4.0586    0.0000 C   0  0  0  0  0  0  0  0  0  0  0  0
   -3.1474   -5.2077    0.0000 N   0  0  0  0  0  2  0  0  0  0  0  0
   -3.3323   -3.0944    0.0000 O   0  0  0  0  0  1  0  0  0  0  0  0
   -1.7321    0.0000    0.0000 C   0  0  0  0  0  0  0  0  0  0  0  0
   -1.7321    4.5000    0.0000 H   0  0  0  0  0  0  0  0  0  0  0  0
   -1.9330    2.2500    0.0000 H   0  0  0  0  0  0  0  0  0  0  0  0
    1.8170    3.5490    0.0000 H   0  0  0  0  0  0  0  0  0  0  0  0
    1.8302    1.1491    0.0000 H   0  0  0  0  0  0  0  0  0  0  0  0
    1.8302   -1.1491    0.0000 H   0  0  0  0  0  0  0  0  0  0  0  0
   -3.2093   -1.7605    0.0000 H   0  0  0  0  0  0  0  0  0  0  0  0
    0.2582   -3.1700    0.0000 H   0  0  0  0  0  0  0  0  0  0  0  0
   -1.0341   -5.0228    0.0000 H   0  0  0  0  0  0  0  0  0  0  0  0
   -4.6246   -4.9472    0.0000 H   0  0  0  0  0  0  0  0  0  0  0  0
   -3.0311    0.7500    0.0000 H   0  0  0  0  0  0  0  0  0  0  0  0
  1  2  1  0
  2  3  1  0
  4  2  1  6
  4  5  1  0
  6  5  1  6
  6  7  1  0
  7  8  1  0
  8  9  1  0
  9 10  1  0
  9 11  1  0
  7 12  1  0
  6  4  1  0
 12  4  1  0
 12  6  1  0
  1 13  1  0
  2 14  1  0
  3 15  1  0
  5 16  1  0
  5 17  1  0
  7 18  1  6
  8 19  1  0
  9 20  1  6
 10 21  1  0
 12 22  1  6
M  RAD  4   1   2   3   2  10   2  11   2
M  END
$$$$
