
     RDKit          2D

 53 60  0  0  0  0  0  0  0  0999 V2000
    6.8274  -13.6557    0.0000 C   0  0  0  0  0  0  0  0  0  0  0  0
    5.9457  -12.4422    0.0000 C   0  0  0  0  0  0  0  0  0  0  0  0
    5.0640  -11.2286    0.0000 C   0  0  0  0  0  0  0  0  0  0  0  0
    6.2776  -10.3470    0.0000 N   0  0  0  0  0  0  0  0  0  0  0  0
    7.6479  -10.9571    0.0000 C   0  0  0  0  0  0  0  0  0  0  0  0
    4.1824  -10.0151    0.0000 C   0  0  0  0  0  0  0  0  0  0  0  0
    5.2243   -8.9361    0.0000 C   0  0  0  0  0  0  0  0  0  0  0  0
    4.8109   -7.4942    0.0000 C   0  0  0  0  0  0  0  0  0  0  0  0
    3.9292   -6.2807    0.0000 C   0  0  0  0  0  0  0  0  0  0  0  0
    3.0475   -5.0672    0.0000 C   0  0  0  0  0  0  0  0  0  0  0  0
    2.1659   -3.8536    0.0000 C   0  0  0  0  0  0  0  0  0  0  0  0
    1.2842   -2.6401    0.0000 C   0  0  0  0  0  0  0  0  0  0  0  0
    0.4025   -1.4266    0.0000 C   0  0  0  0  0  0  0  0  0  0  0  0
    0.8660    0.0000    0.0000 C   0  0  0  0  0  0  0  0  0  0  0  0
   -0.4330    0.7500    0.0000 C   0  0  0  0  0  0  0  0  0  0  0  0
   -0.4330   -0.7500    0.0000 C   0  0  0  0  0  0  0  0  0  0  0  0
   -1.7321    0.0000    0.0000 C   0  0  0  0  0  0  0  0  0  0  0  0
   -3.0777   -0.6657    0.0000 C   0  0  0  0  0  0  0  0  0  0  0  0
   -2.4680   -2.0362    0.0000 C   0  0  0  0  0  0  0  0  0  0  0  0
   -1.0975   -1.4266    0.0000 C   0  0  0  0  0  0  0  0  0  0  0  0
   -3.9598   -1.8789    0.0000 N   0  0  0  0  0  0  0  0  0  0  0  0
    3.7689   -8.5732    0.0000 C   0  0  0  0  0  0  0  0  0  0  0  0
    2.3135   -8.2103    0.0000 C   0  0  0  0  0  0  0  0  0  0  0  0
    7.7091  -14.8692    0.0000 H   0  0  0  0  0  0  0  0  0  0  0  0
    8.0409  -12.7740    0.0000 H   0  0  0  0  0  0  0  0  0  0  0  0
    5.6139  -14.5374    0.0000 H   0  0  0  0  0  0  0  0  0  0  0  0
    6.7157  -12.2359    0.0000 H   0  0  0  0  0  0  0  0  0  0  0  0
    4.7322  -13.3238    0.0000 H   0  0  0  0  0  0  0  0  0  0  0  0
    3.8505  -12.1103    0.0000 H   0  0  0  0  0  0  0  0  0  0  0  0
    6.3038   -8.8472    0.0000 H   0  0  0  0  0  0  0  0  0  0  0  0
    9.0182  -11.5672    0.0000 H   0  0  0  0  0  0  0  0  0  0  0  0
    8.2580   -9.5867    0.0000 H   0  0  0  0  0  0  0  0  0  0  0  0
    7.4148  -11.7194    0.0000 H   0  0  0  0  0  0  0  0  0  0  0  0
    2.8342  -10.6727    0.0000 H   0  0  0  0  0  0  0  0  0  0  0  0
    6.7132   -9.1189    0.0000 H   0  0  0  0  0  0  0  0  0  0  0  0
    6.1591   -6.8367    0.0000 H   0  0  0  0  0  0  0  0  0  0  0  0
    2.6173   -7.0079    0.0000 H   0  0  0  0  0  0  0  0  0  0  0  0
    5.1427   -5.3990    0.0000 H   0  0  0  0  0  0  0  0  0  0  0  0
    4.2611   -4.1855    0.0000 H   0  0  0  0  0  0  0  0  0  0  0  0
    1.8340   -5.9488    0.0000 H   0  0  0  0  0  0  0  0  0  0  0  0
    0.9523   -4.7353    0.0000 H   0  0  0  0  0  0  0  0  0  0  0  0
    3.3794   -2.9720    0.0000 H   0  0  0  0  0  0  0  0  0  0  0  0
    2.4977   -1.7584    0.0000 H   0  0  0  0  0  0  0  0  0  0  0  0
    0.0707   -3.5218    0.0000 H   0  0  0  0  0  0  0  0  0  0  0  0
    2.3660    0.0000    0.0000 H   0  0  0  0  0  0  0  0  0  0  0  0
   -0.4330    2.2500    0.0000 H   0  0  0  0  0  0  0  0  0  0  0  0
   -0.2502   -2.2388    0.0000 H   0  0  0  0  0  0  0  0  0  0  0  0
   -4.0212    0.5004    0.0000 H   0  0  0  0  0  0  0  0  0  0  0  0
   -2.2339   -3.5178    0.0000 H   0  0  0  0  0  0  0  0  0  0  0  0
   -1.0452   -2.9257    0.0000 H   0  0  0  0  0  0  0  0  0  0  0  0
    0.8580   -7.8475    0.0000 H   0  0  0  0  0  0  0  0  0  0  0  0
    1.9506   -9.6658    0.0000 H   0  0  0  0  0  0  0  0  0  0  0  0
    2.4962   -6.7215    0.0000 H   0  0  0  0  0  0  0  0  0  0  0  0
  1  2  1  0
  2  3  1  0
  3  4  1  0
  4  5  1  0
  3  6  1  0
  6  7  1  0
  7  8  1  0
  8  9  1  0
  9 10  1  0
 10 11  1  0
 11 12  1  0
 13 12  1  6
 13 14  1  0
 14 15  1  0
 15 16  1  0
 16 17  1  0
 17 18  1  6
 18 19  1  0
 19 20  1  0
 19 21  1  0
  8 22  1  0
 22 23  1  6
 22  6  1  0
 22  7  1  0
 20 13  1  0
 21 13  1  0
 16 14  1  0
 20 17  1  0
 17 15  1  0
 21 18  1  0
  1 24  1  0
  1 25  1  0
  1 26  1  0
  2 27  1  0
  2 28  1  0
  3 29  1  6
  4 30  1  0
  5 31  1  0
  5 32  1  0
  5 33  1  0
  6 34  1  1
  7 35  1  6
  8 36  1  1
  9 37  1  0
  9 38  1  0
 10 39  1  0
 10 40  1  0
 11 41  1  0
 11 42  1  0
 12 43  1  0
 12 44  1  0
 14 45  1  1
 15 46  1  1
 16 47  1  1
 18 48  1  6
 19 49  1  6
 20 50  1  6
 23 51  1  0
 23 52  1  0
 23 53  1  0
M  END
$$$$
