
     RDKit          2D

 93106  0  0  0  0  0  0  0  0999 V2000
   -4.1629   10.6131    0.0000 C   0  0  0  0  0  0  0  0  0  0  0  0
   -3.7386    9.1743    0.0000 C   0  0  0  0  0  0  0  0  0  0  0  0
   -2.4213    8.4569    0.0000 C   0  0  0  0  0  0  0  0  0  0  0  0
   -1.1040    7.7395    0.0000 C   0  0  0  0  0  0  0  0  0  0  0  0
   -1.8213    6.4222    0.0000 O   0  0  0  0  0  0  0  0  0  0  0  0
   -3.1387    7.1396    0.0000 C   0  0  0  0  0  0  0  0  0  0  0  0
   -4.4560    7.8570    0.0000 C   0  0  0  0  0  0  0  0  0  0  0  0
   -5.9531    7.7635    0.0000 C   0  0  0  0  0  0  0  0  0  0  0  0
   -6.8135    6.5348    0.0000 C   0  0  0  0  0  0  0  0  0  0  0  0
   -6.3892    5.0960    0.0000 C   0  0  0  0  0  0  0  0  0  0  0  0
   -7.8863    5.0026    0.0000 C   0  0  0  0  0  0  0  0  0  0  0  0
   -9.3834    4.9092    0.0000 C   0  0  0  0  0  0  0  0  0  0  0  0
  -10.8805    4.8157    0.0000 C   0  0  0  0  0  0  0  0  0  0  0  0
   -4.9999    4.5307    0.0000 C   0  0  0  0  0  0  0  0  0  0  0  0
   -3.9934    3.4184    0.0000 O   0  0  0  0  0  0  0  0  0  0  0  0
   -5.8602    3.3019    0.0000 P   0  0  0  0  0  0  0  0  0  0  0  0
   -5.2263    1.9425    0.0000 C   0  0  0  0  0  0  0  0  0  0  0  0
   -3.7320    1.8117    0.0000 Sb  0  0  0  0  0  3  0  0  0  0  0  0
   -4.5924    0.5830    0.0000 C   0  0  0  0  0  0  0  0  0  0  0  0
   -3.9584   -0.7765    0.0000 C   0  0  0  0  0  0  0  0  0  0  0  0
   -2.5095   -0.3882    0.0000 C   0  0  0  0  0  0  0  0  0  0  0  0
   -2.8978   -1.8371    0.0000 C   0  0  0  0  0  0  0  0  0  0  0  0
   -3.9584   -2.8978    0.0000 I   0  0  0  0  0  0  0  0  0  0  0  0
   -1.8371   -2.8978    0.0000 C   0  0  0  0  0  0  0  0  0  0  0  0
   -0.3882   -2.5095    0.0000 N   0  0  0  0  0  0  0  0  0  0  0  0
    1.0607   -2.1213    0.0000 C   0  0  0  0  0  0  0  0  0  0  0  0
   -0.0000   -1.0607    0.0000 C   0  0  0  0  0  0  0  0  0  0  0  0
    1.0607    0.0000    0.0000 O   0  0  0  0  0  0  0  0  0  0  0  0
    0.0000    1.0607    0.0000 C   0  0  0  0  0  0  0  0  0  0  0  0
   -0.3882    2.5095    0.0000 C   0  0  0  0  0  0  0  0  0  0  0  0
    0.9712    3.1435    0.0000 C   0  0  0  0  0  0  0  0  0  0  0  0
    2.3307    3.7774    0.0000 C   0  0  0  0  0  0  0  0  0  0  0  0
   -1.2486    3.7383    0.0000 C   0  0  0  0  0  0  0  0  0  0  0  0
   -2.1090    4.9670    0.0000 C   0  0  0  0  0  0  0  0  0  0  0  0
   -2.9693    6.1957    0.0000 C   0  0  0  0  0  0  0  0  0  0  0  0
   -1.4489    1.4489    0.0000 C   0  0  0  0  0  0  0  0  0  0  0  0
   -1.0607    0.0000    0.0000 C   0  0  0  0  0  0  0  0  0  0  0  0
   -6.0867    0.7137    0.0000 C   0  0  0  0  0  0  0  0  0  0  0  0
   -6.4749   -0.7352    0.0000 C   0  0  0  0  0  0  0  0  0  0  0  0
   -6.8631   -2.1840    0.0000 C   0  0  0  0  0  0  0  0  0  0  0  0
   -7.9238   -0.3469    0.0000 C   0  0  0  0  0  0  0  0  0  0  0  0
   -9.3727    0.0413    0.0000 C   0  0  0  0  0  0  0  0  0  0  0  0
   -3.8561    5.8222    0.0000 C   0  0  0  0  0  0  0  0  0  0  0  0
   -5.1734    6.5396    0.0000 C   0  0  0  0  0  0  0  0  0  0  0  0
   -6.4907    7.2570    0.0000 O   0  0  0  0  0  0  0  0  0  0  0  0
   -3.1290   11.6998    0.0000 H   0  0  0  0  0  0  0  0  0  0  0  0
   -5.6210   10.9650    0.0000 H   0  0  0  0  0  0  0  0  0  0  0  0
   -1.7039    9.7742    0.0000 H   0  0  0  0  0  0  0  0  0  0  0  0
    0.3348    8.1638    0.0000 H   0  0  0  0  0  0  0  0  0  0  0  0
   -5.7111    9.2439    0.0000 H   0  0  0  0  0  0  0  0  0  0  0  0
   -7.2632    8.4940    0.0000 H   0  0  0  0  0  0  0  0  0  0  0  0
   -7.9480    7.5160    0.0000 H   0  0  0  0  0  0  0  0  0  0  0  0
   -8.2014    5.9660    0.0000 H   0  0  0  0  0  0  0  0  0  0  0  0
   -7.1458    3.8008    0.0000 H   0  0  0  0  0  0  0  0  0  0  0  0
   -7.9761    3.5053    0.0000 H   0  0  0  0  0  0  0  0  0  0  0  0
   -8.1615    6.4771    0.0000 H   0  0  0  0  0  0  0  0  0  0  0  0
   -9.4768    6.4062    0.0000 H   0  0  0  0  0  0  0  0  0  0  0  0
   -9.2900    3.4121    0.0000 H   0  0  0  0  0  0  0  0  0  0  0  0
  -12.3776    4.7223    0.0000 H   0  0  0  0  0  0  0  0  0  0  0  0
  -10.7870    3.3186    0.0000 H   0  0  0  0  0  0  0  0  0  0  0  0
  -10.9739    6.3128    0.0000 H   0  0  0  0  0  0  0  0  0  0  0  0
   -3.7291    1.9419    0.0000 H   0  0  0  0  0  0  0  0  0  0  0  0
   -7.3417    3.0672    0.0000 H   0  0  0  0  0  0  0  0  0  0  0  0
   -2.4599    2.6066    0.0000 H   0  0  0  0  0  0  0  0  0  0  0  0
   -5.0731   -1.7802    0.0000 H   0  0  0  0  0  0  0  0  0  0  0  0
   -1.7823   -1.7001    0.0000 H   0  0  0  0  0  0  0  0  0  0  0  0
   -1.2032   -4.2572    0.0000 H   0  0  0  0  0  0  0  0  0  0  0  0
   -3.0658   -3.7581    0.0000 H   0  0  0  0  0  0  0  0  0  0  0  0
    2.5095   -2.5095    0.0000 H   0  0  0  0  0  0  0  0  0  0  0  0
    0.5077    4.5701    0.0000 H   0  0  0  0  0  0  0  0  0  0  0  0
    1.6052    1.7840    0.0000 H   0  0  0  0  0  0  0  0  0  0  0  0
    3.6902    4.4113    0.0000 H   0  0  0  0  0  0  0  0  0  0  0  0
    2.9646    2.4179    0.0000 H   0  0  0  0  0  0  0  0  0  0  0  0
    1.6968    5.1369    0.0000 H   0  0  0  0  0  0  0  0  0  0  0  0
   -0.1339    4.7420    0.0000 H   0  0  0  0  0  0  0  0  0  0  0  0
   -2.5730    3.0341    0.0000 H   0  0  0  0  0  0  0  0  0  0  0  0
   -0.8802    5.8274    0.0000 H   0  0  0  0  0  0  0  0  0  0  0  0
   -3.3377    4.1066    0.0000 H   0  0  0  0  0  0  0  0  0  0  0  0
   -3.8297    7.4245    0.0000 H   0  0  0  0  0  0  0  0  0  0  0  0
   -4.3697    5.6583    0.0000 H   0  0  0  0  0  0  0  0  0  0  0  0
   -1.5689    6.7332    0.0000 H   0  0  0  0  0  0  0  0  0  0  0  0
   -7.3587    1.5087    0.0000 H   0  0  0  0  0  0  0  0  0  0  0  0
   -5.0841   -1.2971    0.0000 H   0  0  0  0  0  0  0  0  0  0  0  0
   -7.2513   -3.6329    0.0000 H   0  0  0  0  0  0  0  0  0  0  0  0
   -8.3485   -1.9753    0.0000 H   0  0  0  0  0  0  0  0  0  0  0  0
   -5.4142   -2.5723    0.0000 H   0  0  0  0  0  0  0  0  0  0  0  0
   -8.4857   -1.7377    0.0000 H   0  0  0  0  0  0  0  0  0  0  0  0
   -7.7151    1.1385    0.0000 H   0  0  0  0  0  0  0  0  0  0  0  0
  -10.8216    0.4295    0.0000 H   0  0  0  0  0  0  0  0  0  0  0  0
   -8.9844    1.4902    0.0000 H   0  0  0  0  0  0  0  0  0  0  0  0
   -9.7609   -1.4076    0.0000 H   0  0  0  0  0  0  0  0  0  0  0  0
   -6.1882    5.4350    0.0000 H   0  0  0  0  0  0  0  0  0  0  0  0
   -6.5281    8.7565    0.0000 H   0  0  0  0  0  0  0  0  0  0  0  0
  1  2  2  3
  2  3  1  0
  3  4  1  0
  4  5  1  0
  5  6  1  0
  6  7  1  0
  7  8  1  0
  8  9  1  0
  9 10  1  0
 10 11  1  0
 11 12  1  0
 12 13  1  0
 10 14  1  0
 14 15  1  0
 14 16  1  0
 16 17  1  0
 17 18  1  0
 18 19  1  0
 19 20  1  0
 20 21  1  0
 21 22  1  0
 22 23  1  0
 22 24  1  0
 24 25  1  0
 25 26  1  0
 26 27  1  0
 27 28  1  0
 28 29  1  0
 29 30  1  0
 30 31  1  0
 31 32  1  0
 30 33  1  0
 33 34  1  0
 34 35  1  0
 30 36  1  0
 36 37  1  0
 19 38  1  0
 38 39  1  0
 39 40  1  0
 39 41  1  0
 41 42  1  0
 14 43  1  0
 43 44  1  0
 44 45  1  0
  7  2  1  0
 19 17  1  0
 22 20  1  0
 27 25  1  0
 36 29  1  0
  6  3  1  0
 44  7  1  0
 43  4  1  0
 43  6  1  0
 38 17  1  0
 37 21  1  0
 36 26  1  0
 37 27  1  0
 37 29  1  0
  1 46  1  0
  1 47  1  0
  3 48  1  0
  4 49  1  0
  8 50  1  0
  8 51  1  0
  9 52  1  0
  9 53  1  0
 10 54  1  0
 11 55  1  0
 11 56  1  0
 12 57  1  0
 12 58  1  0
 13 59  1  0
 13 60  1  0
 13 61  1  0
 15 62  1  0
 16 63  1  0
 18 64  1  0
 20 65  1  0
 21 66  1  0
 24 67  1  0
 24 68  1  0
 26 69  1  0
 31 70  1  0
 31 71  1  0
 32 72  1  0
 32 73  1  0
 32 74  1  0
 33 75  1  0
 33 76  1  0
 34 77  1  0
 34 78  1  0
 35 79  1  0
 35 80  1  0
 35 81  1  0
 38 82  1  0
 39 83  1  0
 40 84  1  0
 40 85  1  0
 40 86  1  0
 41 87  1  0
 41 88  1  0
 42 89  1  0
 42 90  1  0
 42 91  1  0
 44 92  1  0
 45 93  1  0
M  END
$$$$
