
     RDKit          2D

 99105  0  0  0  0  0  0  0  0999 V2000
    9.9092   -7.9168    0.0000 C   0  0  0  0  0  0  0  0  0  0  0  0
    8.9055   -6.8020    0.0000 C   0  0  0  0  0  0  0  0  0  0  0  0
    9.2174   -5.3348    0.0000 C   0  0  0  0  0  0  0  0  0  0  0  0
    7.9184   -4.5848    0.0000 C   0  0  0  0  0  0  0  0  0  0  0  0
    6.8037   -5.5885    0.0000 C   0  0  0  0  0  0  0  0  0  0  0  0
    5.5046   -6.3385    0.0000 C   0  0  0  0  0  0  0  0  0  0  0  0
    4.7546   -5.0395    0.0000 O   0  0  0  0  0  0  0  0  0  0  0  0
    5.5046   -3.7404    0.0000 O   0  0  0  0  0  0  0  0  0  0  0  0
    4.7546   -2.4414    0.0000 C   0  0  0  0  0  0  0  0  0  0  0  0
    6.1642   -1.9284    0.0000 C   0  0  0  0  0  0  0  0  0  0  0  0
    6.4246   -0.4512    0.0000 O   0  0  0  0  0  0  0  0  0  0  0  0
    5.2756    0.5130    0.0000 C   0  0  0  0  0  0  0  0  0  0  0  0
    3.8660    0.0000    0.0000 C   0  0  0  0  0  0  0  0  0  0  0  0
    2.3660    0.0000    0.0000 C   0  0  0  0  0  0  0  0  0  0  0  0
    0.8660    0.0000    0.0000 C   0  0  0  0  0  0  0  0  0  0  0  0
    1.0274    1.4913    0.0000 C   0  0  0  0  0  0  0  0  0  0  0  0
    2.4840    1.8497    0.0000 C   0  0  0  0  0  0  0  0  0  0  0  0
    0.1925    2.7374    0.0000 C   0  0  0  0  0  0  0  0  0  0  0  0
    1.6258    3.1799    0.0000 C   0  0  0  0  0  0  0  0  0  0  0  0
   -1.2481    3.1554    0.0000 C   0  0  0  0  0  0  0  0  0  0  0  0
   -1.3481    4.6520    0.0000 C   0  0  0  0  0  0  0  0  0  0  0  0
   -2.6203    2.5495    0.0000 C   0  0  0  0  0  0  0  0  0  0  0  0
   -3.2820    1.2034    0.0000 C   0  0  0  0  0  0  0  0  0  0  0  0
   -2.3231   -0.2131    0.0000 C   0  0  0  0  0  0  0  0  0  0  0  0
   -0.7449   -2.2172    0.0000 C   0  0  0  0  0  0  0  0  0  0  0  0
   -1.8596   -1.2135    0.0000 C   0  0  0  0  0  0  0  0  0  0  0  0
   -1.3413    0.0000    0.0000 C   0  0  0  0  0  0  0  0  0  0  0  0
   -1.8596    1.2135    0.0000 C   0  0  0  0  0  0  0  0  0  0  0  0
   -2.3231    2.6401    0.0000 C   0  0  0  0  0  0  0  0  0  0  0  0
   -2.7866    4.0667    0.0000 C   0  0  0  0  0  0  0  0  0  0  0  0
   -3.2502    5.4933    0.0000 C   0  0  0  0  0  0  0  0  0  0  0  0
   -4.2132    3.6032    0.0000 C   0  0  0  0  0  0  0  0  0  0  0  0
   -5.6398    3.1396    0.0000 C   0  0  0  0  0  0  0  0  0  0  0  0
   -6.7545    4.1433    0.0000 C   0  0  0  0  0  0  0  0  0  0  0  0
   -5.9517    1.6724    0.0000 O   0  0  0  0  0  0  0  0  0  0  0  0
   -0.4330    0.7500    0.0000 C   0  0  0  0  0  0  0  0  0  0  0  0
   -0.4330   -0.7500    0.0000 C   0  0  0  0  0  0  0  0  0  0  0  0
    3.6056   -1.4772    0.0000 C   0  0  0  0  0  0  0  0  0  0  0  0
    4.2056   -7.0885    0.0000 C   0  0  0  0  0  0  0  0  0  0  0  0
    2.9065   -7.8385    0.0000 C   0  0  0  0  0  0  0  0  0  0  0  0
    4.9556   -8.3875    0.0000 C   0  0  0  0  0  0  0  0  0  0  0  0
    5.7056   -9.6866    0.0000 O   0  0  0  0  0  0  0  0  0  0  0  0
    7.4138   -6.9588    0.0000 C   0  0  0  0  0  0  0  0  0  0  0  0
    9.4457   -9.3433    0.0000 H   0  0  0  0  0  0  0  0  0  0  0  0
   11.3765   -7.6049    0.0000 H   0  0  0  0  0  0  0  0  0  0  0  0
    9.8275   -3.9645    0.0000 H   0  0  0  0  0  0  0  0  0  0  0  0
   10.6440   -5.7983    0.0000 H   0  0  0  0  0  0  0  0  0  0  0  0
    6.6896   -3.7245    0.0000 H   0  0  0  0  0  0  0  0  0  0  0  0
    8.8001   -3.3713    0.0000 H   0  0  0  0  0  0  0  0  0  0  0  0
    6.2418   -4.1977    0.0000 H   0  0  0  0  0  0  0  0  0  0  0  0
    6.0907   -7.7193    0.0000 H   0  0  0  0  0  0  0  0  0  0  0  0
    3.6056   -3.4056    0.0000 H   0  0  0  0  0  0  0  0  0  0  0  0
    7.6642   -1.9284    0.0000 H   0  0  0  0  0  0  0  0  0  0  0  0
    6.2426   -3.4263    0.0000 H   0  0  0  0  0  0  0  0  0  0  0  0
    4.5256    1.8121    0.0000 H   0  0  0  0  0  0  0  0  0  0  0  0
    6.4246    1.4772    0.0000 H   0  0  0  0  0  0  0  0  0  0  0  0
    3.7876    1.4979    0.0000 H   0  0  0  0  0  0  0  0  0  0  0  0
    2.7290    1.4554    0.0000 H   0  0  0  0  0  0  0  0  0  0  0  0
    2.1832   -1.4888    0.0000 H   0  0  0  0  0  0  0  0  0  0  0  0
    3.6468    0.9021    0.0000 H   0  0  0  0  0  0  0  0  0  0  0  0
    3.0744    3.2286    0.0000 H   0  0  0  0  0  0  0  0  0  0  0  0
    0.1797    4.2374    0.0000 H   0  0  0  0  0  0  0  0  0  0  0  0
    2.9944    3.7937    0.0000 H   0  0  0  0  0  0  0  0  0  0  0  0
    1.3613    4.6564    0.0000 H   0  0  0  0  0  0  0  0  0  0  0  0
    1.0119    4.5485    0.0000 H   0  0  0  0  0  0  0  0  0  0  0  0
   -0.1019    5.4870    0.0000 H   0  0  0  0  0  0  0  0  0  0  0  0
   -2.4941    5.6198    0.0000 H   0  0  0  0  0  0  0  0  0  0  0  0
   -3.1617    3.9484    0.0000 H   0  0  0  0  0  0  0  0  0  0  0  0
   -4.0584    2.9759    0.0000 H   0  0  0  0  0  0  0  0  0  0  0  0
   -4.6744    1.7614    0.0000 H   0  0  0  0  0  0  0  0  0  0  0  0
   -4.5746    0.4423    0.0000 H   0  0  0  0  0  0  0  0  0  0  0  0
   -3.6826   -0.8470    0.0000 H   0  0  0  0  0  0  0  0  0  0  0  0
   -0.2814   -3.6438    0.0000 H   0  0  0  0  0  0  0  0  0  0  0  0
   -2.9743   -2.2172    0.0000 H   0  0  0  0  0  0  0  0  0  0  0  0
   -3.9700   -0.8603    0.0000 H   0  0  0  0  0  0  0  0  0  0  0  0
   -4.0657    0.7041    0.0000 H   0  0  0  0  0  0  0  0  0  0  0  0
   -0.8268    2.7447    0.0000 H   0  0  0  0  0  0  0  0  0  0  0  0
   -3.6826    2.0061    0.0000 H   0  0  0  0  0  0  0  0  0  0  0  0
   -1.5146    4.8616    0.0000 H   0  0  0  0  0  0  0  0  0  0  0  0
   -3.7137    6.9199    0.0000 H   0  0  0  0  0  0  0  0  0  0  0  0
   -1.8236    5.9568    0.0000 H   0  0  0  0  0  0  0  0  0  0  0  0
   -4.7226    5.2071    0.0000 H   0  0  0  0  0  0  0  0  0  0  0  0
   -4.2919    2.1052    0.0000 H   0  0  0  0  0  0  0  0  0  0  0  0
   -4.8472    4.9626    0.0000 H   0  0  0  0  0  0  0  0  0  0  0  0
   -7.8693    5.1470    0.0000 H   0  0  0  0  0  0  0  0  0  0  0  0
   -7.7582    3.0286    0.0000 H   0  0  0  0  0  0  0  0  0  0  0  0
   -5.7508    5.2581    0.0000 H   0  0  0  0  0  0  0  0  0  0  0  0
   -0.1726    2.2272    0.0000 H   0  0  0  0  0  0  0  0  0  0  0  0
    2.8556   -2.7762    0.0000 H   0  0  0  0  0  0  0  0  0  0  0  0
    2.1440   -1.1398    0.0000 H   0  0  0  0  0  0  0  0  0  0  0  0
    3.4556   -5.7895    0.0000 H   0  0  0  0  0  0  0  0  0  0  0  0
    1.6075   -8.5885    0.0000 H   0  0  0  0  0  0  0  0  0  0  0  0
    2.3205   -6.4577    0.0000 H   0  0  0  0  0  0  0  0  0  0  0  0
    2.0038   -6.6406    0.0000 H   0  0  0  0  0  0  0  0  0  0  0  0
    3.5748   -8.9736    0.0000 H   0  0  0  0  0  0  0  0  0  0  0  0
    3.7577   -9.2903    0.0000 H   0  0  0  0  0  0  0  0  0  0  0  0
    4.9556  -10.9856    0.0000 H   0  0  0  0  0  0  0  0  0  0  0  0
    7.7256   -8.4260    0.0000 H   0  0  0  0  0  0  0  0  0  0  0  0
    6.0543   -7.5928    0.0000 H   0  0  0  0  0  0  0  0  0  0  0  0
  1  2  2  3
  2  3  1  0
  3  4  1  0
  4  5  1  0
  5  6  1  0
  6  7  1  0
  7  8  1  0
  8  9  1  0
  9 10  1  0
 10 11  1  0
 11 12  1  0
 12 13  1  0
 13 14  1  0
 14 15  1  0
 15 16  1  0
 16 17  2  3
 16 18  1  0
 18 19  1  0
 18 20  1  0
 20 21  2  3
 20 22  1  0
 22 23  1  0
 23 24  1  0
 24 25  1  0
 25 26  1  0
 26 27  1  0
 27 28  1  0
 28 29  1  0
 29 30  1  0
 30 31  1  0
 30 32  1  0
 32 33  1  0
 33 34  1  0
 33 35  2  0
 28 36  1  0
 36 37  1  0
 13 38  1  0
  6 39  1  0
 39 40  1  0
 39 41  1  0
 41 42  1  0
  5 43  1  0
 43  2  1  0
 38  9  1  0
 36 15  1  0
 37 15  1  0
 28 24  1  0
 37 25  1  0
 37 26  1  0
  1 44  1  0
  1 45  1  0
  3 46  1  0
  3 47  1  0
  4 48  1  0
  4 49  1  0
  5 50  1  0
  6 51  1  0
  9 52  1  0
 10 53  1  0
 10 54  1  0
 12 55  1  0
 12 56  1  0
 13 57  1  0
 14 58  1  0
 14 59  1  0
 17 60  1  0
 17 61  1  0
 18 62  1  0
 19 63  1  0
 19 64  1  0
 19 65  1  0
 21 66  1  0
 21 67  1  0
 22 68  1  0
 22 69  1  0
 23 70  1  0
 23 71  1  0
 24 72  1  0
 25 73  1  0
 26 74  1  0
 27 75  1  0
 27 76  1  0
 29 77  1  0
 29 78  1  0
 30 79  1  0
 31 80  1  0
 31 81  1  0
 31 82  1  0
 32 83  1  0
 32 84  1  0
 34 85  1  0
 34 86  1  0
 34 87  1  0
 36 88  1  0
 38 89  1  0
 38 90  1  0
 39 91  1  0
 40 92  1  0
 40 93  1  0
 40 94  1  0
 41 95  1  0
 41 96  1  0
 42 97  1  0
 43 98  1  0
 43 99  1  0
M  END
$$$$
