
     RDKit          2D

 93106  0  0  0  0  0  0  0  0999 V2000
   -5.4706   -1.1021    0.0000 C   0  0  0  0  0  0  0  0  0  0  0  0
   -4.6725    0.1679    0.0000 C   0  0  0  0  0  0  0  0  0  0  0  0
   -5.4706    1.4380    0.0000 C   0  0  0  0  0  0  0  0  0  0  0  0
   -6.7407    2.2361    0.0000 O   0  0  0  0  0  0  0  0  0  0  0  0
   -4.9752    2.8539    0.0000 C   0  0  0  0  0  0  0  0  0  0  0  0
   -5.1431    4.3444    0.0000 C   0  0  0  0  0  0  0  0  0  0  0  0
   -5.2113    4.7395    0.0000 C   0  0  0  0  0  0  0  0  0  0  0  0
   -4.9127    4.4045    0.0000 C   0  0  0  0  0  0  0  0  0  0  0  0
   -5.2561    5.3473    0.0000 C   0  0  0  0  0  0  0  0  0  0  0  0
   -6.1469    6.5542    0.0000 C   0  0  0  0  0  0  0  0  0  0  0  0
   -6.3148    8.0448    0.0000 C   0  0  0  0  0  0  0  0  0  0  0  0
   -4.8242    8.2127    0.0000 C   0  0  0  0  0  0  0  0  0  0  0  0
   -4.6563    6.7221    0.0000 C   0  0  0  0  0  0  0  0  0  0  0  0
   -4.0359    5.3564    0.0000 N   0  0  0  0  0  0  0  0  0  0  0  0
   -2.5664    5.0555    0.0000 C   0  0  0  0  0  0  0  0  0  0  0  0
   -2.8673    3.5860    0.0000 C   0  0  0  0  0  0  0  0  0  0  0  0
   -2.2655    6.5251    0.0000 C   0  0  0  0  0  0  0  0  0  0  0  0
   -1.9647    7.9946    0.0000 C   0  0  0  0  0  0  0  0  0  0  0  0
   -6.4477    5.0847    0.0000 O   0  0  0  0  0  0  0  0  0  0  0  0
   -3.5594    3.3493    0.0000 C   0  0  0  0  0  0  0  0  0  0  0  0
   -2.2893    2.5512    0.0000 C   0  0  0  0  0  0  0  0  0  0  0  0
   -1.0192    3.3493    0.0000 O   0  0  0  0  0  0  0  0  0  0  0  0
   -0.1073    1.5352    0.0000 C   0  0  0  0  0  0  0  0  0  0  0  0
    0.6957    0.2682    0.0000 C   0  0  0  0  0  0  0  0  0  0  0  0
   -0.0000   -1.0607    0.0000 C   0  0  0  0  0  0  0  0  0  0  0  0
    1.0607    0.0000    0.0000 C   0  0  0  0  0  0  0  0  0  0  0  0
    0.0000    1.0607    0.0000 O   0  0  0  0  0  0  0  0  0  0  0  0
   -1.0607    0.0000    0.0000 C   0  0  0  0  0  0  0  0  0  0  0  0
   -2.1213   -1.0607    0.0000 C   0  0  0  0  0  0  0  0  0  0  0  0
   -3.1820    0.0000    0.0000 C   0  0  0  0  0  0  0  0  0  0  0  0
   -2.1213    1.0607    0.0000 C   0  0  0  0  0  0  0  0  0  0  0  0
   -1.0607   -2.1213    0.0000 C   0  0  0  0  0  0  0  0  0  0  0  0
   -2.1213   -3.1820    0.0000 C   0  0  0  0  0  0  0  0  0  0  0  0
   -3.1820   -4.2426    0.0000 C   0  0  0  0  0  0  0  0  0  0  0  0
   -4.2426   -5.3033    0.0000 C   0  0  0  0  0  0  0  0  0  0  0  0
   -4.6309   -6.7522    0.0000 C   0  0  0  0  0  0  0  0  0  0  0  0
   -3.1820   -6.3640    0.0000 C   0  0  0  0  0  0  0  0  0  0  0  0
   -2.1213   -5.3033    0.0000 C   0  0  0  0  0  0  0  0  0  0  0  0
   -0.6724   -5.6915    0.0000 C   0  0  0  0  0  0  0  0  0  0  0  0
    0.7765   -5.3033    0.0000 C   0  0  0  0  0  0  0  0  0  0  0  0
    0.3882   -3.8544    0.0000 C   0  0  0  0  0  0  0  0  0  0  0  0
    0.0000   -2.4055    0.0000 C   0  0  0  0  0  0  0  0  0  0  0  0
   -0.3882   -0.9566    0.0000 C   0  0  0  0  0  0  0  0  0  0  0  0
   -1.0607   -4.2426    0.0000 C   0  0  0  0  0  0  0  0  0  0  0  0
   -6.9695   -1.0461    0.0000 H   0  0  0  0  0  0  0  0  0  0  0  0
   -4.7697   -2.4283    0.0000 H   0  0  0  0  0  0  0  0  0  0  0  0
   -6.5313    0.3774    0.0000 H   0  0  0  0  0  0  0  0  0  0  0  0
   -7.9715    1.3787    0.0000 H   0  0  0  0  0  0  0  0  0  0  0  0
   -6.4657    3.0218    0.0000 H   0  0  0  0  0  0  0  0  0  0  0  0
   -7.7410    2.5671    0.0000 H   0  0  0  0  0  0  0  0  0  0  0  0
   -7.8379    5.0564    0.0000 H   0  0  0  0  0  0  0  0  0  0  0  0
   -4.9077    3.8883    0.0000 H   0  0  0  0  0  0  0  0  0  0  0  0
   -6.4827    9.5353    0.0000 H   0  0  0  0  0  0  0  0  0  0  0  0
   -7.8054    7.8768    0.0000 H   0  0  0  0  0  0  0  0  0  0  0  0
   -3.3653    8.5611    0.0000 H   0  0  0  0  0  0  0  0  0  0  0  0
   -4.9922    9.7033    0.0000 H   0  0  0  0  0  0  0  0  0  0  0  0
   -1.0712    4.9360    0.0000 H   0  0  0  0  0  0  0  0  0  0  0  0
   -3.1682    2.1165    0.0000 H   0  0  0  0  0  0  0  0  0  0  0  0
   -1.3687    3.6497    0.0000 H   0  0  0  0  0  0  0  0  0  0  0  0
   -4.3368    3.8869    0.0000 H   0  0  0  0  0  0  0  0  0  0  0  0
   -0.7960    6.2242    0.0000 H   0  0  0  0  0  0  0  0  0  0  0  0
   -3.7351    6.8259    0.0000 H   0  0  0  0  0  0  0  0  0  0  0  0
   -1.6638    9.4641    0.0000 H   0  0  0  0  0  0  0  0  0  0  0  0
   -0.4952    7.6937    0.0000 H   0  0  0  0  0  0  0  0  0  0  0  0
   -3.3865    8.4723    0.0000 H   0  0  0  0  0  0  0  0  0  0  0  0
   -2.2736    4.1218    0.0000 H   0  0  0  0  0  0  0  0  0  0  0  0
   -4.1966    4.7072    0.0000 H   0  0  0  0  0  0  0  0  0  0  0  0
   -0.8921    4.8439    0.0000 H   0  0  0  0  0  0  0  0  0  0  0  0
    1.2798    2.1060    0.0000 H   0  0  0  0  0  0  0  0  0  0  0  0
   -0.0645    3.0346    0.0000 H   0  0  0  0  0  0  0  0  0  0  0  0
    1.8836   -0.6477    0.0000 H   0  0  0  0  0  0  0  0  0  0  0  0
    1.6725    1.4066    0.0000 H   0  0  0  0  0  0  0  0  0  0  0  0
    2.2427    0.9235    0.0000 H   0  0  0  0  0  0  0  0  0  0  0  0
    2.2427   -0.9235    0.0000 H   0  0  0  0  0  0  0  0  0  0  0  0
   -3.1820   -2.1213    0.0000 H   0  0  0  0  0  0  0  0  0  0  0  0
   -3.8328   -1.3515    0.0000 H   0  0  0  0  0  0  0  0  0  0  0  0
   -0.6525    1.3651    0.0000 H   0  0  0  0  0  0  0  0  0  0  0  0
    0.3738   -2.5597    0.0000 H   0  0  0  0  0  0  0  0  0  0  0  0
   -0.8355   -3.9545    0.0000 H   0  0  0  0  0  0  0  0  0  0  0  0
   -4.2426   -3.1820    0.0000 H   0  0  0  0  0  0  0  0  0  0  0  0
   -5.5417   -4.5533    0.0000 H   0  0  0  0  0  0  0  0  0  0  0  0
   -6.1252   -6.6215    0.0000 H   0  0  0  0  0  0  0  0  0  0  0  0
   -4.5001   -8.2465    0.0000 H   0  0  0  0  0  0  0  0  0  0  0  0
   -2.4320   -7.6630    0.0000 H   0  0  0  0  0  0  0  0  0  0  0  0
   -0.6724   -7.1915    0.0000 H   0  0  0  0  0  0  0  0  0  0  0  0
    2.2253   -4.9151    0.0000 H   0  0  0  0  0  0  0  0  0  0  0  0
    1.1647   -6.7522    0.0000 H   0  0  0  0  0  0  0  0  0  0  0  0
    1.8371   -3.4662    0.0000 H   0  0  0  0  0  0  0  0  0  0  0  0
    1.4489   -2.0173    0.0000 H   0  0  0  0  0  0  0  0  0  0  0  0
   -1.4615   -2.0679    0.0000 H   0  0  0  0  0  0  0  0  0  0  0  0
   -0.4143    0.5431    0.0000 H   0  0  0  0  0  0  0  0  0  0  0  0
   -1.8880   -0.9827    0.0000 H   0  0  0  0  0  0  0  0  0  0  0  0
    1.0025   -0.3947    0.0000 H   0  0  0  0  0  0  0  0  0  0  0  0
  1  2  2  3
  2  3  1  0
  3  4  1  0
  3  5  1  0
  5  6  1  0
  6  7  1  0
  7  8  2  0
  8  9  1  0
  9 10  1  0
 10 11  1  0
 11 12  1  0
 12 13  1  0
 13 14  1  0
 14 15  1  0
 15 16  1  0
 15 17  1  0
 17 18  1  0
 10 19  1  0
  5 20  1  0
 20 21  1  0
 21 22  1  0
 21 23  1  0
 23 24  1  0
 24 25  1  0
 25 26  1  0
 26 27  1  0
 27 28  1  0
 28 29  1  0
 29 30  1  0
 30 31  1  0
 29 32  1  0
 32 33  1  0
 33 34  1  0
 34 35  1  0
 35 36  1  0
 36 37  1  0
 37 38  1  0
 38 39  1  0
 39 40  1  0
 40 41  1  0
 41 42  1  0
 42 43  1  0
 41 44  1  0
 30  2  1  0
 44 33  1  0
 14  6  1  0
 31 21  1  0
 38 34  1  0
 44 39  1  0
 19  6  1  0
 28 25  1  0
 37 35  1  0
 44 38  1  0
 13  9  1  0
 32 25  1  0
 13 10  1  0
 31 28  1  0
  1 45  1  0
  1 46  1  0
  3 47  1  0
  4 48  1  0
  5 49  1  0
  7 50  1  0
  8 51  1  0
  9 52  1  0
 11 53  1  0
 11 54  1  0
 12 55  1  0
 12 56  1  0
 15 57  1  0
 16 58  1  0
 16 59  1  0
 16 60  1  0
 17 61  1  0
 17 62  1  0
 18 63  1  0
 18 64  1  0
 18 65  1  0
 20 66  1  0
 20 67  1  0
 22 68  1  0
 23 69  1  0
 23 70  1  0
 24 71  1  0
 24 72  1  0
 26 73  1  0
 26 74  1  0
 29 75  1  0
 30 76  1  0
 31 77  1  0
 32 78  1  0
 33 79  1  0
 34 80  1  0
 35 81  1  0
 36 82  1  0
 36 83  1  0
 37 84  1  0
 39 85  1  0
 40 86  1  0
 40 87  1  0
 41 88  1  0
 42 89  1  0
 42 90  1  0
 43 91  1  0
 43 92  1  0
 43 93  1  0
M  END
$$$$
