
     RDKit          2D

 82 84  0  0  0  0  0  0  0  0999 V2000
   10.5665   -3.4379    0.0000 C   0  0  0  0  0  0  0  0  0  0  0  0
    9.3633   -4.3336    0.0000 C   0  0  0  0  0  0  0  0  0  0  0  0
    9.5374   -5.8235    0.0000 O   0  0  0  0  0  0  0  0  0  0  0  0
    7.9860   -3.7395    0.0000 C   0  0  0  0  0  0  0  0  0  0  0  0
    6.6086   -3.1454    0.0000 C   0  0  0  0  0  0  0  0  0  0  0  0
    5.2313   -2.5513    0.0000 C   0  0  0  0  0  0  0  0  0  0  0  0
    3.8540   -1.9572    0.0000 C   0  0  0  0  0  0  0  0  0  0  0  0
    4.8182   -0.8081    0.0000 C   0  0  0  0  0  0  0  0  0  0  0  0
    4.8182    0.6919    0.0000 C   0  0  0  0  0  0  0  0  0  0  0  0
    3.8540    1.8410    0.0000 C   0  0  0  0  0  0  0  0  0  0  0  0
    3.6799    3.3308    0.0000 C   0  0  0  0  0  0  0  0  0  0  0  0
    4.0258    4.7904    0.0000 C   0  0  0  0  0  0  0  0  0  0  0  0
    2.6485    5.3845    0.0000 C   0  0  0  0  0  0  0  0  0  0  0  0
    5.1168    3.7610    0.0000 C   0  0  0  0  0  0  0  0  0  0  0  0
    6.3200    4.6568    0.0000 C   0  0  0  0  0  0  0  0  0  0  0  0
    2.3768    2.1015    0.0000 C   0  0  0  0  0  0  0  0  0  0  0  0
    1.2857    3.1308    0.0000 C   0  0  0  0  0  0  0  0  0  0  0  0
    1.0777    1.3515    0.0000 C   0  0  0  0  0  0  0  0  0  0  0  0
    1.7286    0.0000    0.0000 C   0  0  0  0  0  0  0  0  0  0  0  0
    1.0777   -1.3515    0.0000 C   0  0  0  0  0  0  0  0  0  0  0  0
    2.3768   -2.2176    0.0000 C   0  0  0  0  0  0  0  0  0  0  0  0
   -0.3846   -1.6852    0.0000 C   0  0  0  0  0  0  0  0  0  0  0  0
    0.2662   -3.0367    0.0000 N   0  0  0  0  0  0  0  0  0  0  0  0
   -1.5574   -0.7500    0.0000 C   0  0  0  0  0  0  0  0  0  0  0  0
   -1.5574    0.7500    0.0000 C   0  0  0  0  0  0  0  0  0  0  0  0
   -3.0198    0.4162    0.0000 C   0  0  0  0  0  0  0  0  0  0  0  0
   -4.4822    0.0824    0.0000 C   0  0  0  0  0  0  0  0  0  0  0  0
   -5.9446   -0.2513    0.0000 N   0  0  0  0  0  0  0  0  0  0  0  0
   -0.3846    1.6852    0.0000 C   0  0  0  0  0  0  0  0  0  0  0  0
   -1.5574    2.6205    0.0000 C   0  0  0  0  0  0  0  0  0  0  0  0
    6.0145   -4.5227    0.0000 C   0  0  0  0  0  0  0  0  0  0  0  0
    5.1645   -4.2736    0.0000 F   0  0  0  0  0  0  0  0  0  0  0  0
    5.4204   -5.9000    0.0000 C   0  0  0  0  0  0  0  0  0  0  0  0
    4.8263   -7.2774    0.0000 F   0  0  0  0  0  0  0  0  0  0  0  0
   11.9438   -4.0320    0.0000 H   0  0  0  0  0  0  0  0  0  0  0  0
   10.3923   -1.9480    0.0000 H   0  0  0  0  0  0  0  0  0  0  0  0
   10.9148   -6.4176    0.0000 H   0  0  0  0  0  0  0  0  0  0  0  0
    8.5801   -2.3622    0.0000 H   0  0  0  0  0  0  0  0  0  0  0  0
    7.5642   -5.1790    0.0000 H   0  0  0  0  0  0  0  0  0  0  0  0
    7.2028   -1.7681    0.0000 H   0  0  0  0  0  0  0  0  0  0  0  0
    5.7148   -1.9175    0.0000 H   0  0  0  0  0  0  0  0  0  0  0  0
    4.7840   -3.3157    0.0000 H   0  0  0  0  0  0  0  0  0  0  0  0
    3.8628   -3.4571    0.0000 H   0  0  0  0  0  0  0  0  0  0  0  0
    6.2552   -0.3779    0.0000 H   0  0  0  0  0  0  0  0  0  0  0  0
    5.4658   -1.2728    0.0000 H   0  0  0  0  0  0  0  0  0  0  0  0
    5.9212    1.7085    0.0000 H   0  0  0  0  0  0  0  0  0  0  0  0
    6.2969    0.4401    0.0000 H   0  0  0  0  0  0  0  0  0  0  0  0
    5.2313    2.4351    0.0000 H   0  0  0  0  0  0  0  0  0  0  0  0
    2.2042    3.5999    0.0000 H   0  0  0  0  0  0  0  0  0  0  0  0
    4.6911    6.1348    0.0000 H   0  0  0  0  0  0  0  0  0  0  0  0
    1.2711    5.9786    0.0000 H   0  0  0  0  0  0  0  0  0  0  0  0
    3.2426    6.7618    0.0000 H   0  0  0  0  0  0  0  0  0  0  0  0
    2.0543    4.0072    0.0000 H   0  0  0  0  0  0  0  0  0  0  0  0
    6.0944    2.6233    0.0000 H   0  0  0  0  0  0  0  0  0  0  0  0
    7.5232    5.5525    0.0000 H   0  0  0  0  0  0  0  0  0  0  0  0
    7.2158    3.4536    0.0000 H   0  0  0  0  0  0  0  0  0  0  0  0
    5.5776    5.9602    0.0000 H   0  0  0  0  0  0  0  0  0  0  0  0
    2.5248    3.5941    0.0000 H   0  0  0  0  0  0  0  0  0  0  0  0
    0.3283    4.2855    0.0000 H   0  0  0  0  0  0  0  0  0  0  0  0
    2.3151    4.2219    0.0000 H   0  0  0  0  0  0  0  0  0  0  0  0
    0.0229    2.3213    0.0000 H   0  0  0  0  0  0  0  0  0  0  0  0
    2.8816   -3.6301    0.0000 H   0  0  0  0  0  0  0  0  0  0  0  0
    1.4193   -3.3723    0.0000 H   0  0  0  0  0  0  0  0  0  0  0  0
   -1.4346   -2.7564    0.0000 H   0  0  0  0  0  0  0  0  0  0  0  0
   -0.5788   -4.2760    0.0000 H   0  0  0  0  0  0  0  0  0  0  0  0
    1.7372   -3.3303    0.0000 H   0  0  0  0  0  0  0  0  0  0  0  0
   -2.3681   -2.0120    0.0000 H   0  0  0  0  0  0  0  0  0  0  0  0
   -3.0496   -0.5970    0.0000 H   0  0  0  0  0  0  0  0  0  0  0  0
   -2.3681    2.0120    0.0000 H   0  0  0  0  0  0  0  0  0  0  0  0
   -3.3536    1.8786    0.0000 H   0  0  0  0  0  0  0  0  0  0  0  0
   -2.8668   -1.0760    0.0000 H   0  0  0  0  0  0  0  0  0  0  0  0
   -4.8160    1.5448    0.0000 H   0  0  0  0  0  0  0  0  0  0  0  0
   -4.1484   -1.3800    0.0000 H   0  0  0  0  0  0  0  0  0  0  0  0
   -6.3867   -1.6847    0.0000 H   0  0  0  0  0  0  0  0  0  0  0  0
   -6.9648    0.8482    0.0000 H   0  0  0  0  0  0  0  0  0  0  0  0
    0.2662    3.0367    0.0000 H   0  0  0  0  0  0  0  0  0  0  0  0
   -2.7301    3.5557    0.0000 H   0  0  0  0  0  0  0  0  0  0  0  0
   -0.7721    3.8985    0.0000 H   0  0  0  0  0  0  0  0  0  0  0  0
   -2.6286    1.5705    0.0000 H   0  0  0  0  0  0  0  0  0  0  0  0
    7.3092   -5.2803    0.0000 H   0  0  0  0  0  0  0  0  0  0  0  0
    4.0431   -5.3059    0.0000 H   0  0  0  0  0  0  0  0  0  0  0  0
    6.7977   -6.4942    0.0000 H   0  0  0  0  0  0  0  0  0  0  0  0
  1  2  2  3
  2  3  1  0
  2  4  1  0
  4  5  1  0
  5  6  1  0
  6  7  1  0
  7  8  1  0
  8  9  1  0
  9 10  1  0
 10 11  1  0
 11 12  1  0
 12 13  1  0
 12 14  1  0
 14 15  1  0
 10 16  1  0
 16 17  1  0
 16 18  1  0
 18 19  2  0
 19 20  2  0
 20 21  1  0
 20 22  1  0
 22 23  1  0
 22 24  1  0
 24 25  1  0
 25 26  1  0
 26 27  1  0
 27 28  1  0
 25 29  1  0
 29 30  1  0
  5 31  1  0
 31 32  1  0
 31 33  1  0
 33 34  1  0
 21  7  1  0
 14 11  1  0
 29 18  1  0
  1 35  1  0
  1 36  1  0
  3 37  1  0
  4 38  1  0
  4 39  1  0
  5 40  1  1
  6 41  1  0
  6 42  1  0
  7 43  1  1
  8 44  1  0
  8 45  1  0
  9 46  1  0
  9 47  1  0
 10 48  1  1
 11 49  1  0
 12 50  1  1
 13 51  1  0
 13 52  1  0
 13 53  1  0
 14 54  1  6
 15 55  1  0
 15 56  1  0
 15 57  1  0
 16 58  1  6
 17 59  1  0
 17 60  1  0
 17 61  1  0
 21 62  1  0
 21 63  1  0
 22 64  1  6
 23 65  1  0
 23 66  1  0
 24 67  1  0
 24 68  1  0
 25 69  1  1
 26 70  1  0
 26 71  1  0
 27 72  1  0
 27 73  1  0
 28 74  1  0
 28 75  1  0
 29 76  1  6
 30 77  1  0
 30 78  1  0
 30 79  1  0
 31 80  1  6
 33 81  1  0
 33 82  1  0
M  END
$$$$
