
     RDKit          2D

 31 36  0  0  0  0  0  0  0  0999 V2000
    0.0896   -2.8978    0.0000 N   0  0  0  0  0  0  0  0  0  0  0  0
    1.5385   -2.5095    0.0000 C   0  0  0  0  0  0  0  0  0  0  0  0
    2.5991   -3.5702    0.0000 N   0  0  0  0  0  0  0  0  0  0  0  0
    2.2109   -5.0191    0.0000 C   0  0  0  0  0  0  0  0  0  0  0  0
    3.5704   -5.6530    0.0000 C   0  0  0  0  0  0  0  0  0  0  0  0
    3.7011   -7.1473    0.0000 C   0  0  0  0  0  0  0  0  0  0  0  0
    2.4724   -8.0077    0.0000 N   0  0  0  0  0  0  0  0  0  0  0  0
    2.3416   -6.5134    0.0000 C   0  0  0  0  0  0  0  0  0  0  0  0
    1.9267   -1.0607    0.0000 N   0  0  0  0  0  0  0  0  0  0  0  0
    0.8660    0.0000    0.0000 C   0  0  0  0  0  0  0  0  0  0  0  0
   -0.4330   -0.7500    0.0000 C   0  0  0  0  0  0  0  0  0  0  0  0
   -1.1830    0.5490    0.0000 C   0  0  0  0  0  0  0  0  0  0  0  0
    0.1160    1.2990    0.0000 C   0  0  0  0  0  0  0  0  0  0  0  0
    0.1160    2.7990    0.0000 C   0  0  0  0  0  0  0  0  0  0  0  0
    1.6160    2.7990    0.0000 N   0  0  0  0  0  0  0  0  0  0  0  0
    1.6160    1.2990    0.0000 C   0  0  0  0  0  0  0  0  0  0  0  0
   -0.2987   -4.3467    0.0000 H   0  0  0  0  0  0  0  0  0  0  0  0
    4.0480   -3.1820    0.0000 H   0  0  0  0  0  0  0  0  0  0  0  0
    0.7166   -4.8884    0.0000 H   0  0  0  0  0  0  0  0  0  0  0  0
    4.7991   -4.7927    0.0000 H   0  0  0  0  0  0  0  0  0  0  0  0
    5.0605   -7.7812    0.0000 H   0  0  0  0  0  0  0  0  0  0  0  0
    1.8384   -9.3671    0.0000 H   0  0  0  0  0  0  0  0  0  0  0  0
    3.3756   -0.6724    0.0000 H   0  0  0  0  0  0  0  0  0  0  0  0
   -1.7321   -1.5000    0.0000 H   0  0  0  0  0  0  0  0  0  0  0  0
   -0.0982   -1.9180    0.0000 H   0  0  0  0  0  0  0  0  0  0  0  0
   -1.9330    1.8481    0.0000 H   0  0  0  0  0  0  0  0  0  0  0  0
   -2.4821   -0.2010    0.0000 H   0  0  0  0  0  0  0  0  0  0  0  0
    0.1160    4.2990    0.0000 H   0  0  0  0  0  0  0  0  0  0  0  0
   -1.3840    2.7990    0.0000 H   0  0  0  0  0  0  0  0  0  0  0  0
    2.6767    3.8597    0.0000 H   0  0  0  0  0  0  0  0  0  0  0  0
    3.0649    0.9108    0.0000 H   0  0  0  0  0  0  0  0  0  0  0  0
  1  2  2  3
  2  3  1  0
  3  4  1  0
  4  5  1  0
  5  6  1  0
  6  7  1  0
  7  8  1  0
  2  9  1  0
  9 10  1  0
 10 11  1  0
 11 12  1  0
 12 13  1  0
 13 14  1  0
 14 15  1  0
 15 16  1  0
  8  4  1  0
 13 10  1  0
  8  5  1  0
 16 10  1  0
  8  6  1  0
 16 13  1  0
  1 17  1  0
  3 18  1  0
  4 19  1  0
  5 20  1  0
  6 21  1  0
  7 22  1  0
  9 23  1  0
 11 24  1  0
 11 25  1  0
 12 26  1  0
 12 27  1  0
 14 28  1  0
 14 29  1  0
 15 30  1  0
 16 31  1  0
M  END
$$$$
