
     RDKit          2D

 63 67  0  0  0  0  0  0  0  0999 V2000
   -5.7501    7.5327    0.0000 C   0  0  0  0  0  0  0  0  0  0  0  0
   -4.3319    7.0444    0.0000 C   0  0  0  0  0  0  0  0  0  0  0  0
   -2.9136    6.5560    0.0000 C   0  0  0  0  0  0  0  0  0  0  0  0
   -1.4953    6.0677    0.0000 C   0  0  0  0  0  0  0  0  0  0  0  0
   -0.3632    7.0518    0.0000 C   0  0  0  0  0  0  0  0  0  0  0  0
   -0.0770    5.5793    0.0000 C   0  0  0  0  0  0  0  0  0  0  0  0
   -1.2091    4.5952    0.0000 C   0  0  0  0  0  0  0  0  0  0  0  0
   -2.6095    4.0577    0.0000 C   0  0  0  0  0  0  0  0  0  0  0  0
   -4.0098    3.5201    0.0000 C   0  0  0  0  0  0  0  0  0  0  0  0
   -5.4102    2.9826    0.0000 C   0  0  0  0  0  0  0  0  0  0  0  0
   -3.4723    2.1198    0.0000 C   0  0  0  0  0  0  0  0  0  0  0  0
   -2.9347    0.7194    0.0000 C   0  0  0  0  0  0  0  0  0  0  0  0
   -2.3972   -0.6810    0.0000 C   0  0  0  0  0  0  0  0  0  0  0  0
   -1.5802   -1.9390    0.0000 C   0  0  0  0  0  0  0  0  0  0  0  0
   -2.5242   -3.1047    0.0000 C   0  0  0  0  0  0  0  0  0  0  0  0
   -1.2662   -3.9217    0.0000 C   0  0  0  0  0  0  0  0  0  0  0  0
   -0.0082   -4.7386    0.0000 C   0  0  0  0  0  0  0  0  0  0  0  0
    1.2498   -5.5556    0.0000 O   0  0  0  0  0  0  0  0  0  0  0  0
   -3.9246   -2.5672    0.0000 C   0  0  0  0  0  0  0  0  0  0  0  0
   -5.4225   -2.4887    0.0000 O   0  0  0  0  0  0  0  0  0  0  0  0
   -5.3440   -0.9907    0.0000 C   0  0  0  0  0  0  0  0  0  0  0  0
   -5.2655    0.5072    0.0000 C   0  0  0  0  0  0  0  0  0  0  0  0
   -6.7634    0.5857    0.0000 O   0  0  0  0  0  0  0  0  0  0  0  0
   -6.6849    2.0837    0.0000 C   0  0  0  0  0  0  0  0  0  0  0  0
   -6.6064    3.5816    0.0000 O   0  0  0  0  0  0  0  0  0  0  0  0
   -5.1870    2.0052    0.0000 O   0  0  0  0  0  0  0  0  0  0  0  0
   -3.8461   -1.0692    0.0000 C   0  0  0  0  0  0  0  0  0  0  0  0
   -7.1684    8.0211    0.0000 H   0  0  0  0  0  0  0  0  0  0  0  0
   -6.2385    6.1144    0.0000 H   0  0  0  0  0  0  0  0  0  0  0  0
   -5.2618    8.9510    0.0000 H   0  0  0  0  0  0  0  0  0  0  0  0
   -3.8435    8.4627    0.0000 H   0  0  0  0  0  0  0  0  0  0  0  0
   -4.9237    5.8310    0.0000 H   0  0  0  0  0  0  0  0  0  0  0  0
   -2.4252    7.9743    0.0000 H   0  0  0  0  0  0  0  0  0  0  0  0
   -3.3019    5.7599    0.0000 H   0  0  0  0  0  0  0  0  0  0  0  0
   -1.1358    8.3375    0.0000 H   0  0  0  0  0  0  0  0  0  0  0  0
    1.0371    7.5893    0.0000 H   0  0  0  0  0  0  0  0  0  0  0  0
    1.3413    5.0910    0.0000 H   0  0  0  0  0  0  0  0  0  0  0  0
   -0.4365    3.3095    0.0000 H   0  0  0  0  0  0  0  0  0  0  0  0
   -1.9052    2.7333    0.0000 H   0  0  0  0  0  0  0  0  0  0  0  0
   -3.0253    4.8397    0.0000 H   0  0  0  0  0  0  0  0  0  0  0  0
   -4.6436    4.7121    0.0000 H   0  0  0  0  0  0  0  0  0  0  0  0
   -6.2014    2.8855    0.0000 H   0  0  0  0  0  0  0  0  0  0  0  0
   -5.9477    4.3829    0.0000 H   0  0  0  0  0  0  0  0  0  0  0  0
   -4.7060    1.6582    0.0000 H   0  0  0  0  0  0  0  0  0  0  0  0
   -2.0168    2.4826    0.0000 H   0  0  0  0  0  0  0  0  0  0  0  0
   -4.9277    1.7569    0.0000 H   0  0  0  0  0  0  0  0  0  0  0  0
   -1.5344    1.2569    0.0000 H   0  0  0  0  0  0  0  0  0  0  0  0
   -4.3351    0.1818    0.0000 H   0  0  0  0  0  0  0  0  0  0  0  0
   -1.0607   -0.0000    0.0000 H   0  0  0  0  0  0  0  0  0  0  0  0
   -0.4145   -0.9950    0.0000 H   0  0  0  0  0  0  0  0  0  0  0  0
   -0.3982   -2.8625    0.0000 H   0  0  0  0  0  0  0  0  0  0  0  0
   -3.2052   -4.4412    0.0000 H   0  0  0  0  0  0  0  0  0  0  0  0
   -2.0831   -5.1797    0.0000 H   0  0  0  0  0  0  0  0  0  0  0  0
   -0.3020   -2.7726    0.0000 H   0  0  0  0  0  0  0  0  0  0  0  0
    0.8088   -3.4806    0.0000 H   0  0  0  0  0  0  0  0  0  0  0  0
   -0.8251   -5.9966    0.0000 H   0  0  0  0  0  0  0  0  0  0  0  0
    1.1713   -7.0535    0.0000 H   0  0  0  0  0  0  0  0  0  0  0  0
   -4.2364   -4.0344    0.0000 H   0  0  0  0  0  0  0  0  0  0  0  0
   -6.8419   -0.9122    0.0000 H   0  0  0  0  0  0  0  0  0  0  0  0
   -3.7676    0.4287    0.0000 H   0  0  0  0  0  0  0  0  0  0  0  0
   -8.1829    2.1622    0.0000 H   0  0  0  0  0  0  0  0  0  0  0  0
   -7.8644    4.3986    0.0000 H   0  0  0  0  0  0  0  0  0  0  0  0
   -4.0029    0.4226    0.0000 H   0  0  0  0  0  0  0  0  0  0  0  0
  1  2  1  0
  2  3  1  0
  3  4  1  0
  4  5  1  0
  5  6  1  0
  6  7  1  0
  7  8  1  0
  8  9  1  0
  9 10  1  0
  9 11  1  0
 11 12  1  0
 12 13  1  0
 13 14  1  0
 14 15  1  0
 15 16  1  0
 16 17  1  0
 17 18  1  0
 15 19  1  0
 19 20  1  0
 20 21  1  0
 21 22  1  0
 22 23  1  0
 23 24  1  0
 24 25  1  0
 24 26  1  0
 21 27  1  0
  6  4  1  0
 27 13  1  0
  7  4  1  0
 27 19  1  0
 26 22  1  0
  1 28  1  0
  1 29  1  0
  1 30  1  0
  2 31  1  0
  2 32  1  0
  3 33  1  0
  3 34  1  0
  5 35  1  0
  5 36  1  0
  6 37  1  0
  7 38  1  0
  8 39  1  0
  8 40  1  0
  9 41  1  0
 10 42  1  0
 10 43  1  0
 10 44  1  0
 11 45  1  0
 11 46  1  0
 12 47  1  0
 12 48  1  0
 13 49  1  0
 14 50  1  0
 14 51  1  0
 15 52  1  0
 16 53  1  0
 16 54  1  0
 17 55  1  0
 17 56  1  0
 18 57  1  0
 19 58  1  0
 21 59  1  0
 22 60  1  0
 24 61  1  0
 25 62  1  0
 27 63  1  0
M  END
$$$$
