
     RDKit          2D

 37 36  0  0  0  0  0  0  0  0999 V2000
    0.0000    0.0000    0.0000 C   0  0  0  0  0  0  0  0  0  0  0  0
    1.2990    0.7500    0.0000 C   0  0  0  0  0  0  0  0  0  0  0  0
    2.5981   -0.0000    0.0000 C   0  0  0  0  0  0  0  0  0  0  0  0
    3.8971   -0.7500    0.0000 N   0  0  0  0  0  0  0  0  0  0  0  0
    3.8971   -2.2500    0.0000 C   0  0  0  0  0  0  0  0  0  0  0  0
    2.3971   -2.2500    0.0000 C   0  0  0  0  0  0  0  0  0  0  0  0
    5.3971   -2.2500    0.0000 C   0  0  0  0  0  0  0  0  0  0  0  0
    1.2990    2.2500    0.0000 C   0  0  0  0  0  0  0  0  0  0  0  0
    1.2990    3.7500    0.0000 C   0  0  0  0  0  0  0  0  0  0  0  0
    2.7990    2.2500    0.0000 C   0  0  0  0  0  0  0  0  0  0  0  0
    4.2990    2.2500    0.0000 C   0  0  0  0  0  0  0  0  0  0  0  0
    5.7990    2.2500    0.0000 O   0  0  0  0  0  0  0  0  0  0  0  0
    6.5490    3.5490    0.0000 C   0  0  0  0  0  0  0  0  0  0  0  0
    7.2990    4.8481    0.0000 O   0  0  0  0  0  0  0  0  0  0  0  0
   -1.2990    0.7500    0.0000 H   0  0  0  0  0  0  0  0  0  0  0  0
   -0.0000   -1.5000    0.0000 H   0  0  0  0  0  0  0  0  0  0  0  0
    3.5008    1.1979    0.0000 H   0  0  0  0  0  0  0  0  0  0  0  0
    2.1183   -0.6366    0.0000 H   0  0  0  0  0  0  0  0  0  0  0  0
    5.0950    0.1528    0.0000 H   0  0  0  0  0  0  0  0  0  0  0  0
    3.8971   -3.7500    0.0000 H   0  0  0  0  0  0  0  0  0  0  0  0
    0.8971   -2.2500    0.0000 H   0  0  0  0  0  0  0  0  0  0  0  0
    2.3971   -3.7500    0.0000 H   0  0  0  0  0  0  0  0  0  0  0  0
    2.1114   -1.5058    0.0000 H   0  0  0  0  0  0  0  0  0  0  0  0
    6.8971   -2.2500    0.0000 H   0  0  0  0  0  0  0  0  0  0  0  0
    5.3971   -3.7500    0.0000 H   0  0  0  0  0  0  0  0  0  0  0  0
    5.5800   -0.7612    0.0000 H   0  0  0  0  0  0  0  0  0  0  0  0
   -0.2010    2.2500    0.0000 H   0  0  0  0  0  0  0  0  0  0  0  0
    1.2990    5.2500    0.0000 H   0  0  0  0  0  0  0  0  0  0  0  0
   -0.2010    3.7500    0.0000 H   0  0  0  0  0  0  0  0  0  0  0  0
    2.7879    3.9328    0.0000 H   0  0  0  0  0  0  0  0  0  0  0  0
    2.9819    3.7388    0.0000 H   0  0  0  0  0  0  0  0  0  0  0  0
    3.3367    0.8497    0.0000 H   0  0  0  0  0  0  0  0  0  0  0  0
    4.2990    3.7500    0.0000 H   0  0  0  0  0  0  0  0  0  0  0  0
    4.2990    0.7500    0.0000 H   0  0  0  0  0  0  0  0  0  0  0  0
    7.8481    2.7990    0.0000 H   0  0  0  0  0  0  0  0  0  0  0  0
    5.2500    4.2990    0.0000 H   0  0  0  0  0  0  0  0  0  0  0  0
    6.5490    6.1471    0.0000 H   0  0  0  0  0  0  0  0  0  0  0  0
  1  2  2  3
  2  3  1  0
  3  4  1  0
  4  5  1  0
  5  6  1  0
  5  7  1  0
  2  8  1  0
  8  9  1  0
  8 10  1  0
 10 11  1  0
 11 12  1  0
 12 13  1  0
 13 14  1  0
  1 15  1  0
  1 16  1  0
  3 17  1  0
  3 18  1  0
  4 19  1  0
  5 20  1  0
  6 21  1  0
  6 22  1  0
  6 23  1  0
  7 24  1  0
  7 25  1  0
  7 26  1  0
  8 27  1  0
  9 28  1  0
  9 29  1  0
  9 30  1  0
 10 31  1  0
 10 32  1  0
 11 33  1  0
 11 34  1  0
 13 35  1  0
 13 36  1  0
 14 37  1  0
M  END
$$$$
