
     RDKit          3D

 17 19  0  0  0  0  0  0  0  0999 V2000
   12.5829  -33.9003  -16.2171 C   0  0  0  0  0  0  0  0  0  0  0  0
   15.0711  -33.4801  -12.8330 C   0  0  0  0  0  0  0  0  0  0  0  0
   13.5960  -31.4767  -11.5861 C   0  0  0  0  0  0  0  0  0  0  0  0
   12.5206  -31.3717  -15.0067 C   0  0  0  0  0  0  0  0  0  0  0  0
   12.0525  -29.7104  -15.6037 C   0  0  0  0  0  0  0  0  0  0  0  0
   14.5072  -32.7903  -11.5079 C   0  0  0  0  0  0  0  0  0  0  0  0
   11.2259  -24.6270  -16.2995 C   0  0  0  0  0  0  0  0  0  0  0  0
   14.5165  -33.7813  -10.2576 C   0  0  0  0  0  0  0  0  0  0  0  0
   11.9206  -23.6764  -17.3904 C   0  0  0  0  0  0  0  0  0  0  0  0
   14.4177  -33.8455  -14.2760 C   0  0  0  0  0  0  0  0  0  0  0  0
   13.0498  -33.1023  -14.9326 C   0  0  0  0  0  0  0  0  0  0  0  0
   11.1760  -29.8634  -16.9239 C   0  0  0  0  0  0  0  0  0  0  0  0
   10.6414  -28.4106  -16.6540 C   0  0  0  0  0  0  0  0  0  0  0  0
   11.3758  -23.6784  -14.9834 C   0  0  0  0  0  0  0  0  0  0  0  0
   11.9251  -28.0061  -16.0818 C   0  0  0  0  0  0  0  0  0  0  0  0
   11.7972  -26.2388  -15.8595 C   0  0  0  0  0  0  0  0  0  0  0  0
   14.2577  -34.2013  -11.7699 C   0  0  0  0  0  0  0  0  0  0  0  0
  5  4  1  0
  6  2  1  0
  6  3  1  0
  8  6  1  0
  9  7  1  0
 10  2  1  0
 11  1  1  0
 11  4  1  0
 11 10  1  0
 12  5  1  0
 13 12  1  0
 14  7  1  0
 15  5  1  0
 15 13  1  0
 16  7  1  0
 16 15  1  0
 17  2  1  0
 17  6  1  0
 17  8  1  0
M  END
$$$$
