
     RDKit          2D

 29 30  0  0  0  0  0  0  0  0999 V2000
    1.3870    2.1184    0.0000 C   0  0  0  0  0  0  0  0  0  0  0  0
    2.3907    1.0037    0.0000 C   0  0  0  0  0  0  0  0  0  0  0  0
    3.3944   -0.1110    0.0000 C   0  0  0  0  0  0  0  0  0  0  0  0
    1.2760    0.0000    0.0000 C   0  0  0  0  0  0  0  0  0  0  0  0
    0.3943    1.2135    0.0000 O   0  0  0  0  0  0  0  0  0  0  0  0
   -1.0323    0.7500    0.0000 C   0  0  0  0  0  0  0  0  0  0  0  0
   -1.0323   -0.7500    0.0000 C   0  0  0  0  0  0  0  0  0  0  0  0
    0.3943   -1.2135    0.0000 C   0  0  0  0  0  0  0  0  0  0  0  0
    1.6933   -1.9635    0.0000 C   0  0  0  0  0  0  0  0  0  0  0  0
    2.6575   -3.1126    0.0000 C   0  0  0  0  0  0  0  0  0  0  0  0
    1.1803   -3.3731    0.0000 C   0  0  0  0  0  0  0  0  0  0  0  0
    0.3833    3.2331    0.0000 H   0  0  0  0  0  0  0  0  0  0  0  0
    2.5017    3.1221    0.0000 H   0  0  0  0  0  0  0  0  0  0  0  0
    0.6831    1.7442    0.0000 H   0  0  0  0  0  0  0  0  0  0  0  0
    3.5054    2.0074    0.0000 H   0  0  0  0  0  0  0  0  0  0  0  0
    4.3981   -1.2257    0.0000 H   0  0  0  0  0  0  0  0  0  0  0  0
    4.6231    0.7493    0.0000 H   0  0  0  0  0  0  0  0  0  0  0  0
    4.3784    1.0211    0.0000 H   0  0  0  0  0  0  0  0  0  0  0  0
    2.5047   -0.8603    0.0000 H   0  0  0  0  0  0  0  0  0  0  0  0
   -2.5241    0.5932    0.0000 H   0  0  0  0  0  0  0  0  0  0  0  0
   -1.3442    2.2172    0.0000 H   0  0  0  0  0  0  0  0  0  0  0  0
   -1.3442   -2.2172    0.0000 H   0  0  0  0  0  0  0  0  0  0  0  0
   -2.5241   -0.5932    0.0000 H   0  0  0  0  0  0  0  0  0  0  0  0
   -0.3783   -2.4993    0.0000 H   0  0  0  0  0  0  0  0  0  0  0  0
    2.7904   -0.9406    0.0000 H   0  0  0  0  0  0  0  0  0  0  0  0
    3.9566   -2.3626    0.0000 H   0  0  0  0  0  0  0  0  0  0  0  0
    3.1705   -4.5221    0.0000 H   0  0  0  0  0  0  0  0  0  0  0  0
    1.1803   -4.8731    0.0000 H   0  0  0  0  0  0  0  0  0  0  0  0
   -0.3176   -3.2946    0.0000 H   0  0  0  0  0  0  0  0  0  0  0  0
  1  2  1  0
  2  3  1  0
  2  4  1  0
  4  5  1  0
  5  6  1  0
  6  7  1  0
  7  8  1  0
  8  9  1  0
  9 10  1  0
 10 11  1  0
  8  4  1  0
 11  9  1  0
  1 12  1  0
  1 13  1  0
  1 14  1  0
  2 15  1  0
  3 16  1  0
  3 17  1  0
  3 18  1  0
  4 19  1  0
  6 20  1  0
  6 21  1  0
  7 22  1  0
  7 23  1  0
  8 24  1  0
  9 25  1  0
 10 26  1  0
 10 27  1  0
 11 28  1  0
 11 29  1  0
M  END
$$$$
