
     RDKit          2D

112118  0  0  0  0  0  0  0  0999 V2000
   -4.3301    1.5000    0.0000 C   0  0  0  0  0  0  0  0  0  0  0  0
   -3.0311    0.7500    0.0000 C   0  0  0  0  0  0  0  0  0  0  0  0
   -1.7321    1.5000    0.0000 C   0  0  0  0  0  0  0  0  0  0  0  0
   -2.6962    2.6491    0.0000 C   0  0  0  0  0  0  0  0  0  0  0  0
   -3.2093    4.0586    0.0000 C   0  0  0  0  0  0  0  0  0  0  0  0
   -1.7321    3.7981    0.0000 N   0  0  0  0  0  0  0  0  0  0  0  0
   -0.4330    0.7500    0.0000 C   0  0  0  0  0  0  0  0  0  0  0  0
    0.8660    0.0000    0.0000 C   0  0  0  0  0  0  0  0  0  0  0  0
   -0.4330   -0.7500    0.0000 C   0  0  0  0  0  0  0  0  0  0  0  0
   -1.7321   -1.5000    0.0000 C   0  0  0  0  0  0  0  0  0  0  0  0
   -1.7321   -3.0000    0.0000 O   0  0  0  0  0  0  0  0  0  0  0  0
   -3.0311   -3.7500    0.0000 N   0  0  0  0  0  0  0  0  0  0  0  0
   -2.8482   -5.2388    0.0000 Cl  0  0  0  0  0  0  0  0  0  0  0  0
   -4.3301   -3.0000    0.0000 C   0  0  0  0  0  0  0  0  0  0  0  0
   -3.8666   -4.4266    0.0000 C   0  0  0  0  0  0  0  0  0  0  0  0
   -5.2932   -4.8901    0.0000 C   0  0  0  0  0  0  0  0  0  0  0  0
   -6.7198   -5.3536    0.0000 C   0  0  0  0  0  0  0  0  0  0  0  0
   -7.4240   -4.0292    0.0000 C   0  0  0  0  0  0  0  0  0  0  0  0
   -8.1282   -2.7048    0.0000 C   0  0  0  0  0  0  0  0  0  0  0  0
   -7.9018   -6.2771    0.0000 C   0  0  0  0  0  0  0  0  0  0  0  0
   -6.5110   -6.8390    0.0000 C   0  0  0  0  0  0  0  0  0  0  0  0
   -6.8229   -8.3063    0.0000 C   0  0  0  0  0  0  0  0  0  0  0  0
   -7.1347   -9.7735    0.0000 C   0  0  0  0  0  0  0  0  0  0  0  0
   -7.4466  -11.2407    0.0000 C   0  0  0  0  0  0  0  0  0  0  0  0
   -7.7585  -12.7079    0.0000 C   0  0  0  0  0  0  0  0  0  0  0  0
   -5.0119   -6.8914    0.0000 C   0  0  0  0  0  0  0  0  0  0  0  0
   -3.5128   -6.9437    0.0000 C   0  0  0  0  0  0  0  0  0  0  0  0
   -2.0138   -6.9961    0.0000 C   0  0  0  0  0  0  0  0  0  0  0  0
   -3.5652   -8.4428    0.0000 C   0  0  0  0  0  0  0  0  0  0  0  0
   -3.6175   -9.9419    0.0000 C   0  0  0  0  0  0  0  0  0  0  0  0
   -3.6699  -11.4410    0.0000 C   0  0  0  0  0  0  0  0  0  0  0  0
   -3.7222  -12.9401    0.0000 C   0  0  0  0  0  0  0  0  0  0  0  0
   -2.0661   -8.4952    0.0000 C   0  0  0  0  0  0  0  0  0  0  0  0
   -0.5670   -8.5475    0.0000 C   0  0  0  0  0  0  0  0  0  0  0  0
   -2.1185   -9.9943    0.0000 C   0  0  0  0  0  0  0  0  0  0  0  0
   -2.1708  -11.4933    0.0000 C   0  0  0  0  0  0  0  0  0  0  0  0
   -5.7567   -3.4635    0.0000 C   0  0  0  0  0  0  0  0  0  0  0  0
   -6.6384   -2.2500    0.0000 C   0  0  0  0  0  0  0  0  0  0  0  0
   -7.7531   -3.2537    0.0000 O   0  0  0  0  0  0  0  0  0  0  0  0
   -9.1797   -2.7902    0.0000 C   0  0  0  0  0  0  0  0  0  0  0  0
   -8.7162   -1.3636    0.0000 C   0  0  0  0  0  0  0  0  0  0  0  0
   -9.6432   -4.2168    0.0000 C   0  0  0  0  0  0  0  0  0  0  0  0
   -5.7567   -1.0365    0.0000 C   0  0  0  0  0  0  0  0  0  0  0  0
   -4.3301   -1.5000    0.0000 C   0  0  0  0  0  0  0  0  0  0  0  0
   -3.0311   -0.7500    0.0000 C   0  0  0  0  0  0  0  0  0  0  0  0
   -4.5130    2.9888    0.0000 H   0  0  0  0  0  0  0  0  0  0  0  0
   -5.7109    0.9139    0.0000 H   0  0  0  0  0  0  0  0  0  0  0  0
   -0.7679    2.6491    0.0000 H   0  0  0  0  0  0  0  0  0  0  0  0
   -4.1381    2.2357    0.0000 H   0  0  0  0  0  0  0  0  0  0  0  0
   -4.7072    3.9801    0.0000 H   0  0  0  0  0  0  0  0  0  0  0  0
   -3.2093    5.5586    0.0000 H   0  0  0  0  0  0  0  0  0  0  0  0
   -0.3225    4.3112    0.0000 H   0  0  0  0  0  0  0  0  0  0  0  0
    0.3170    2.0490    0.0000 H   0  0  0  0  0  0  0  0  0  0  0  0
    1.8302    1.1491    0.0000 H   0  0  0  0  0  0  0  0  0  0  0  0
    1.8302   -1.1491    0.0000 H   0  0  0  0  0  0  0  0  0  0  0  0
    0.4697   -1.9479    0.0000 H   0  0  0  0  0  0  0  0  0  0  0  0
   -0.5341   -2.4028    0.0000 H   0  0  0  0  0  0  0  0  0  0  0  0
   -3.5804   -5.8990    0.0000 H   0  0  0  0  0  0  0  0  0  0  0  0
   -2.3702   -4.3220    0.0000 H   0  0  0  0  0  0  0  0  0  0  0  0
   -4.4982   -6.1621    0.0000 H   0  0  0  0  0  0  0  0  0  0  0  0
   -8.7484   -4.7334    0.0000 H   0  0  0  0  0  0  0  0  0  0  0  0
   -6.3093   -3.0255    0.0000 H   0  0  0  0  0  0  0  0  0  0  0  0
   -8.4910   -1.2493    0.0000 H   0  0  0  0  0  0  0  0  0  0  0  0
   -9.5836   -3.0676    0.0000 H   0  0  0  0  0  0  0  0  0  0  0  0
   -6.8995   -1.8444    0.0000 H   0  0  0  0  0  0  0  0  0  0  0  0
   -9.1305   -5.4168    0.0000 H   0  0  0  0  0  0  0  0  0  0  0  0
   -8.8458   -7.4428    0.0000 H   0  0  0  0  0  0  0  0  0  0  0  0
   -5.4046   -8.7946    0.0000 H   0  0  0  0  0  0  0  0  0  0  0  0
   -8.3172   -8.1756    0.0000 H   0  0  0  0  0  0  0  0  0  0  0  0
   -8.6020   -9.4616    0.0000 H   0  0  0  0  0  0  0  0  0  0  0  0
   -5.7165  -10.2619    0.0000 H   0  0  0  0  0  0  0  0  0  0  0  0
   -6.0283  -11.7291    0.0000 H   0  0  0  0  0  0  0  0  0  0  0  0
   -8.9138  -10.9288    0.0000 H   0  0  0  0  0  0  0  0  0  0  0  0
   -8.0703  -14.1751    0.0000 H   0  0  0  0  0  0  0  0  0  0  0  0
   -9.2257  -12.3961    0.0000 H   0  0  0  0  0  0  0  0  0  0  0  0
   -6.2913  -13.0198    0.0000 H   0  0  0  0  0  0  0  0  0  0  0  0
   -4.8812   -8.3857    0.0000 H   0  0  0  0  0  0  0  0  0  0  0  0
   -4.5984   -5.4495    0.0000 H   0  0  0  0  0  0  0  0  0  0  0  0
   -3.2009   -8.4109    0.0000 H   0  0  0  0  0  0  0  0  0  0  0  0
   -0.5195   -6.8653    0.0000 H   0  0  0  0  0  0  0  0  0  0  0  0
   -1.5253   -8.4143    0.0000 H   0  0  0  0  0  0  0  0  0  0  0  0
   -1.9614   -5.4970    0.0000 H   0  0  0  0  0  0  0  0  0  0  0  0
   -2.0709   -8.3120    0.0000 H   0  0  0  0  0  0  0  0  0  0  0  0
   -2.1757  -10.3554    0.0000 H   0  0  0  0  0  0  0  0  0  0  0  0
   -5.1118  -10.0727    0.0000 H   0  0  0  0  0  0  0  0  0  0  0  0
   -2.2280  -11.8545    0.0000 H   0  0  0  0  0  0  0  0  0  0  0  0
   -5.1642  -11.5718    0.0000 H   0  0  0  0  0  0  0  0  0  0  0  0
   -3.7746  -14.4392    0.0000 H   0  0  0  0  0  0  0  0  0  0  0  0
   -5.2213  -12.8877    0.0000 H   0  0  0  0  0  0  0  0  0  0  0  0
   -2.2407  -13.1748    0.0000 H   0  0  0  0  0  0  0  0  0  0  0  0
   -1.6526   -7.0533    0.0000 H   0  0  0  0  0  0  0  0  0  0  0  0
    0.9321   -8.5999    0.0000 H   0  0  0  0  0  0  0  0  0  0  0  0
   -0.4362  -10.0418    0.0000 H   0  0  0  0  0  0  0  0  0  0  0  0
   -0.3323   -7.0660    0.0000 H   0  0  0  0  0  0  0  0  0  0  0  0
   -0.6369  -10.2289    0.0000 H   0  0  0  0  0  0  0  0  0  0  0  0
   -3.5857  -10.3062    0.0000 H   0  0  0  0  0  0  0  0  0  0  0  0
   -2.0400  -12.9876    0.0000 H   0  0  0  0  0  0  0  0  0  0  0  0
   -0.6717  -11.5457    0.0000 H   0  0  0  0  0  0  0  0  0  0  0  0
   -3.6380  -11.8053    0.0000 H   0  0  0  0  0  0  0  0  0  0  0  0
   -7.2183   -3.8009    0.0000 H   0  0  0  0  0  0  0  0  0  0  0  0
   -7.6224   -1.1179    0.0000 H   0  0  0  0  0  0  0  0  0  0  0  0
  -10.6063   -2.3266    0.0000 H   0  0  0  0  0  0  0  0  0  0  0  0
   -8.2526    0.0630    0.0000 H   0  0  0  0  0  0  0  0  0  0  0  0
  -10.1428   -0.9001    0.0000 H   0  0  0  0  0  0  0  0  0  0  0  0
   -7.2390   -1.1030    0.0000 H   0  0  0  0  0  0  0  0  0  0  0  0
  -10.1067   -5.6433    0.0000 H   0  0  0  0  0  0  0  0  0  0  0  0
  -11.0698   -3.7532    0.0000 H   0  0  0  0  0  0  0  0  0  0  0  0
   -8.2838   -4.8507    0.0000 H   0  0  0  0  0  0  0  0  0  0  0  0
   -7.0557   -0.2865    0.0000 H   0  0  0  0  0  0  0  0  0  0  0  0
   -5.4963    0.4408    0.0000 H   0  0  0  0  0  0  0  0  0  0  0  0
   -4.3039   -0.0002    0.0000 H   0  0  0  0  0  0  0  0  0  0  0  0
   -3.0311   -2.2500    0.0000 H   0  0  0  0  0  0  0  0  0  0  0  0
  1  2  2  3
  2  3  1  0
  3  4  1  0
  4  5  1  0
  5  6  1  0
  3  7  1  0
  7  8  1  0
  8  9  1  0
  9 10  1  0
 10 11  1  0
 11 12  1  0
 12 13  1  0
 12 14  1  0
 14 15  1  0
 15 16  1  0
 16 17  1  0
 17 18  1  0
 18 19  1  0
 17 20  1  0
 20 21  1  0
 21 22  1  0
 22 23  1  0
 23 24  1  0
 24 25  1  0
 21 26  1  0
 26 27  1  0
 27 28  1  0
 27 29  1  0
 29 30  1  0
 30 31  1  0
 31 32  1  0
 29 33  1  0
 33 34  1  0
 33 35  1  0
 35 36  1  0
 16 37  1  0
 37 38  1  0
 38 39  1  0
 39 40  1  0
 40 41  1  0
 40 42  1  0
 38 43  1  0
 43 44  1  0
 44 45  1  0
 45  2  1  0
  6  4  1  0
  9  7  1  0
 45 10  1  0
 37 14  1  0
 44 14  1  0
 21 17  1  0
  1 46  1  0
  1 47  1  0
  3 48  1  0
  4 49  1  0
  5 50  1  0
  5 51  1  0
  6 52  1  0
  7 53  1  0
  8 54  1  0
  8 55  1  0
  9 56  1  0
 10 57  1  0
 15 58  1  0
 15 59  1  0
 16 60  1  0
 18 61  1  0
 18 62  1  0
 19 63  1  0
 19 64  1  0
 19 65  1  0
 20 66  1  0
 20 67  1  0
 22 68  1  0
 22 69  1  0
 23 70  1  0
 23 71  1  0
 24 72  1  0
 24 73  1  0
 25 74  1  0
 25 75  1  0
 25 76  1  0
 26 77  1  0
 26 78  1  0
 27 79  1  0
 28 80  1  0
 28 81  1  0
 28 82  1  0
 29 83  1  0
 30 84  1  0
 30 85  1  0
 31 86  1  0
 31 87  1  0
 32 88  1  0
 32 89  1  0
 32 90  1  0
 33 91  1  0
 34 92  1  0
 34 93  1  0
 34 94  1  0
 35 95  1  0
 35 96  1  0
 36 97  1  0
 36 98  1  0
 36 99  1  0
 37100  1  0
 38101  1  0
 40102  1  0
 41103  1  0
 41104  1  0
 41105  1  0
 42106  1  0
 42107  1  0
 42108  1  0
 43109  1  0
 43110  1  0
 44111  1  0
 45112  1  0
M  END
$$$$
