
     RDKit          2D

 53 54  0  0  0  0  0  0  0  0999 V2000
    4.8414   -5.4592    0.0000 C   0  0  0  0  0  0  0  0  0  0  0  0
    3.9964   -4.2198    0.0000 C   0  0  0  0  0  0  0  0  0  0  0  0
    3.1514   -2.9805    0.0000 C   0  0  0  0  0  0  0  0  0  0  0  0
    2.3065   -1.7411    0.0000 C   0  0  0  0  0  0  0  0  0  0  0  0
    1.4615   -0.5017    0.0000 O   0  0  0  0  0  0  0  0  0  0  0  0
    1.9121   -3.8254    0.0000 C   0  0  0  0  0  0  0  0  0  0  0  0
    0.6727   -4.6704    0.0000 C   0  0  0  0  0  0  0  0  0  0  0  0
   -0.5666   -5.5154    0.0000 C   0  0  0  0  0  0  0  0  0  0  0  0
   -1.8060   -6.3604    0.0000 C   0  0  0  0  0  0  0  0  0  0  0  0
   -1.4116   -4.2760    0.0000 C   0  0  0  0  0  0  0  0  0  0  0  0
   -2.2566   -3.0367    0.0000 N   0  0  0  0  0  0  0  0  0  0  0  0
   -3.7524   -3.1488    0.0000 C   0  0  0  0  0  0  0  0  0  0  0  0
   -3.5288   -1.6655    0.0000 C   0  0  0  0  0  0  0  0  0  0  0  0
   -4.5491   -0.5660    0.0000 C   0  0  0  0  0  0  0  0  0  0  0  0
   -6.0449   -0.6781    0.0000 C   0  0  0  0  0  0  0  0  0  0  0  0
   -7.4412   -0.1300    0.0000 N   0  0  0  0  0  0  0  0  0  0  0  0
   -6.8899   -1.9174    0.0000 C   0  0  0  0  0  0  0  0  0  0  0  0
   -6.4477   -3.3508    0.0000 C   0  0  0  0  0  0  0  0  0  0  0  0
   -6.2242   -4.8340    0.0000 N   0  0  0  0  0  0  0  0  0  0  0  0
   -5.0514   -3.8988    0.0000 C   0  0  0  0  0  0  0  0  0  0  0  0
    5.6864   -6.6985    0.0000 H   0  0  0  0  0  0  0  0  0  0  0  0
    6.0808   -4.6142    0.0000 H   0  0  0  0  0  0  0  0  0  0  0  0
    3.6021   -6.3042    0.0000 H   0  0  0  0  0  0  0  0  0  0  0  0
    3.3309   -4.8043    0.0000 H   0  0  0  0  0  0  0  0  0  0  0  0
    5.2358   -3.3748    0.0000 H   0  0  0  0  0  0  0  0  0  0  0  0
    4.3908   -2.1355    0.0000 H   0  0  0  0  0  0  0  0  0  0  0  0
    3.5458   -0.8961    0.0000 H   0  0  0  0  0  0  0  0  0  0  0  0
    1.5193   -2.1471    0.0000 H   0  0  0  0  0  0  0  0  0  0  0  0
    2.1123    0.8497    0.0000 H   0  0  0  0  0  0  0  0  0  0  0  0
    1.3277   -3.1599    0.0000 H   0  0  0  0  0  0  0  0  0  0  0  0
    2.3181   -4.6126    0.0000 H   0  0  0  0  0  0  0  0  0  0  0  0
    0.2667   -3.8832    0.0000 H   0  0  0  0  0  0  0  0  0  0  0  0
    1.5177   -5.9098    0.0000 H   0  0  0  0  0  0  0  0  0  0  0  0
    0.2784   -6.7548    0.0000 H   0  0  0  0  0  0  0  0  0  0  0  0
   -3.0453   -7.2054    0.0000 H   0  0  0  0  0  0  0  0  0  0  0  0
   -0.9610   -7.5997    0.0000 H   0  0  0  0  0  0  0  0  0  0  0  0
   -2.9257   -5.3623    0.0000 H   0  0  0  0  0  0  0  0  0  0  0  0
   -0.7461   -3.6916    0.0000 H   0  0  0  0  0  0  0  0  0  0  0  0
   -2.6510   -5.1210    0.0000 H   0  0  0  0  0  0  0  0  0  0  0  0
   -1.4459   -1.7746    0.0000 H   0  0  0  0  0  0  0  0  0  0  0  0
   -3.6702   -4.6465    0.0000 H   0  0  0  0  0  0  0  0  0  0  0  0
   -2.5391   -0.5384    0.0000 H   0  0  0  0  0  0  0  0  0  0  0  0
   -2.0289   -1.6766    0.0000 H   0  0  0  0  0  0  0  0  0  0  0  0
   -4.8132    0.9106    0.0000 H   0  0  0  0  0  0  0  0  0  0  0  0
   -3.3512    0.3368    0.0000 H   0  0  0  0  0  0  0  0  0  0  0  0
   -6.0038    0.8214    0.0000 H   0  0  0  0  0  0  0  0  0  0  0  0
   -7.6648    1.3532    0.0000 H   0  0  0  0  0  0  0  0  0  0  0  0
   -8.7192   -0.9153    0.0000 H   0  0  0  0  0  0  0  0  0  0  0  0
   -8.1889   -2.6674    0.0000 H   0  0  0  0  0  0  0  0  0  0  0  0
   -8.2365   -1.2566    0.0000 H   0  0  0  0  0  0  0  0  0  0  0  0
   -7.9101   -3.6846    0.0000 H   0  0  0  0  0  0  0  0  0  0  0  0
   -6.7722   -6.2303    0.0000 H   0  0  0  0  0  0  0  0  0  0  0  0
   -4.2064   -5.1381    0.0000 H   0  0  0  0  0  0  0  0  0  0  0  0
  1  2  1  0
  2  3  1  0
  3  4  1  0
  4  5  1  0
  3  6  1  0
  6  7  1  0
  7  8  1  0
  8  9  1  0
  8 10  1  0
 10 11  1  0
 11 12  1  0
 12 13  1  0
 13 14  1  0
 14 15  1  0
 15 16  1  0
 15 17  1  0
 17 18  1  0
 18 19  1  0
 19 20  1  0
 20 12  1  0
 20 18  1  0
  1 21  1  0
  1 22  1  0
  1 23  1  0
  2 24  1  0
  2 25  1  0
  3 26  1  6
  4 27  1  0
  4 28  1  0
  5 29  1  0
  6 30  1  0
  6 31  1  0
  7 32  1  0
  7 33  1  0
  8 34  1  6
  9 35  1  0
  9 36  1  0
  9 37  1  0
 10 38  1  0
 10 39  1  0
 11 40  1  0
 12 41  1  6
 13 42  1  0
 13 43  1  0
 14 44  1  0
 14 45  1  0
 15 46  1  6
 16 47  1  0
 16 48  1  0
 17 49  1  0
 17 50  1  0
 18 51  1  1
 19 52  1  0
 20 53  1  6
M  END
$$$$
