
     RDKit          2D

123124  0  0  0  0  0  0  0  0999 V2000
    7.4740    1.3497    0.0000 C   0  0  0  0  0  0  0  0  0  0  0  0
    5.9740    1.3497    0.0000 C   0  0  0  0  0  0  0  0  0  0  0  0
    5.2240    2.6487    0.0000 C   0  0  0  0  0  0  0  0  0  0  0  0
    5.2240    0.0506    0.0000 C   0  0  0  0  0  0  0  0  0  0  0  0
    3.8145    0.5637    0.0000 C   0  0  0  0  0  0  0  0  0  0  0  0
    2.4049    1.0767    0.0000 C   0  0  0  0  0  0  0  0  0  0  0  0
    0.9954    1.5897    0.0000 C   0  0  0  0  0  0  0  0  0  0  0  0
    6.3731   -0.9136    0.0000 C   0  0  0  0  0  0  0  0  0  0  0  0
    4.9635   -1.4266    0.0000 C   0  0  0  0  0  0  0  0  0  0  0  0
    5.2240   -2.9038    0.0000 C   0  0  0  0  0  0  0  0  0  0  0  0
    5.4845   -4.3810    0.0000 C   0  0  0  0  0  0  0  0  0  0  0  0
    6.9617   -4.1205    0.0000 O   0  0  0  0  0  0  0  0  0  0  0  0
    5.7449   -5.8582    0.0000 C   0  0  0  0  0  0  0  0  0  0  0  0
    6.0054   -7.3354    0.0000 C   0  0  0  0  0  0  0  0  0  0  0  0
    3.4635   -1.4266    0.0000 C   0  0  0  0  0  0  0  0  0  0  0  0
    1.9635   -1.4266    0.0000 C   0  0  0  0  0  0  0  0  0  0  0  0
    2.4271    0.0000    0.0000 C   0  0  0  0  0  0  0  0  0  0  0  0
    1.9635    1.4266    0.0000 C   0  0  0  0  0  0  0  0  0  0  0  0
    0.7500    2.3083    0.0000 C   0  0  0  0  0  0  0  0  0  0  0  0
   -0.7500    2.3083    0.0000 C   0  0  0  0  0  0  0  0  0  0  0  0
   -1.9635    3.1899    0.0000 C   0  0  0  0  0  0  0  0  0  0  0  0
   -3.1771    4.0716    0.0000 C   0  0  0  0  0  0  0  0  0  0  0  0
   -4.3906    4.9533    0.0000 C   0  0  0  0  0  0  0  0  0  0  0  0
   -5.6041    5.8350    0.0000 C   0  0  0  0  0  0  0  0  0  0  0  0
   -2.2954    5.2851    0.0000 C   0  0  0  0  0  0  0  0  0  0  0  0
   -1.4137    6.4987    0.0000 C   0  0  0  0  0  0  0  0  0  0  0  0
   -0.5320    7.7122    0.0000 C   0  0  0  0  0  0  0  0  0  0  0  0
    0.3497    8.9257    0.0000 C   0  0  0  0  0  0  0  0  0  0  0  0
    1.2313   10.1392    0.0000 C   0  0  0  0  0  0  0  0  0  0  0  0
   -2.6272    7.3803    0.0000 C   0  0  0  0  0  0  0  0  0  0  0  0
   -3.8407    8.2620    0.0000 C   0  0  0  0  0  0  0  0  0  0  0  0
   -5.0543    9.1437    0.0000 C   0  0  0  0  0  0  0  0  0  0  0  0
   -1.9635    1.4266    0.0000 C   0  0  0  0  0  0  0  0  0  0  0  0
   -2.4271    0.0000    0.0000 C   0  0  0  0  0  0  0  0  0  0  0  0
   -3.6406   -0.8817    0.0000 C   0  0  0  0  0  0  0  0  0  0  0  0
   -1.9635   -1.4266    0.0000 C   0  0  0  0  0  0  0  0  0  0  0  0
   -0.7500   -2.3083    0.0000 N   0  0  0  0  0  0  0  0  0  0  0  0
    0.7500   -2.3083    0.0000 C   0  0  0  0  0  0  0  0  0  0  0  0
    1.9635   -3.1899    0.0000 C   0  0  0  0  0  0  0  0  0  0  0  0
    3.1771   -4.0716    0.0000 C   0  0  0  0  0  0  0  0  0  0  0  0
    2.8452   -1.9764    0.0000 O   0  0  0  0  0  0  0  0  0  0  0  0
    1.0818   -4.4035    0.0000 C   0  0  0  0  0  0  0  0  0  0  0  0
    0.2002   -5.6170    0.0000 C   0  0  0  0  0  0  0  0  0  0  0  0
   -0.6815   -6.8305    0.0000 C   0  0  0  0  0  0  0  0  0  0  0  0
    8.2240    2.6487    0.0000 H   0  0  0  0  0  0  0  0  0  0  0  0
    8.3768    0.1517    0.0000 H   0  0  0  0  0  0  0  0  0  0  0  0
    4.4740    3.9477    0.0000 H   0  0  0  0  0  0  0  0  0  0  0  0
    6.5230    3.3987    0.0000 H   0  0  0  0  0  0  0  0  0  0  0  0
    3.9250    1.8987    0.0000 H   0  0  0  0  0  0  0  0  0  0  0  0
    4.1518    2.0252    0.0000 H   0  0  0  0  0  0  0  0  0  0  0  0
    3.1334   -0.7728    0.0000 H   0  0  0  0  0  0  0  0  0  0  0  0
    3.0859    2.4132    0.0000 H   0  0  0  0  0  0  0  0  0  0  0  0
    1.4207   -0.0553    0.0000 H   0  0  0  0  0  0  0  0  0  0  0  0
   -0.4964    1.7464    0.0000 H   0  0  0  0  0  0  0  0  0  0  0  0
    1.6764    2.9262    0.0000 H   0  0  0  0  0  0  0  0  0  0  0  0
    0.4824    0.1802    0.0000 H   0  0  0  0  0  0  0  0  0  0  0  0
    7.2758   -2.1115    0.0000 H   0  0  0  0  0  0  0  0  0  0  0  0
    7.6311   -0.0966    0.0000 H   0  0  0  0  0  0  0  0  0  0  0  0
    6.7219   -2.8253    0.0000 H   0  0  0  0  0  0  0  0  0  0  0  0
    3.7468   -3.1643    0.0000 H   0  0  0  0  0  0  0  0  0  0  0  0
    4.0500   -4.8196    0.0000 H   0  0  0  0  0  0  0  0  0  0  0  0
    8.0587   -5.1435    0.0000 H   0  0  0  0  0  0  0  0  0  0  0  0
    7.2429   -5.7798    0.0000 H   0  0  0  0  0  0  0  0  0  0  0  0
    4.2677   -6.1187    0.0000 H   0  0  0  0  0  0  0  0  0  0  0  0
    6.2659   -8.8126    0.0000 H   0  0  0  0  0  0  0  0  0  0  0  0
    4.5282   -7.5959    0.0000 H   0  0  0  0  0  0  0  0  0  0  0  0
    7.4826   -7.0750    0.0000 H   0  0  0  0  0  0  0  0  0  0  0  0
    3.4635   -2.9266    0.0000 H   0  0  0  0  0  0  0  0  0  0  0  0
    3.2807    0.0622    0.0000 H   0  0  0  0  0  0  0  0  0  0  0  0
    2.7585   -2.6986    0.0000 H   0  0  0  0  0  0  0  0  0  0  0  0
    3.3912    1.1491    0.0000 H   0  0  0  0  0  0  0  0  0  0  0  0
    3.7390   -0.7272    0.0000 H   0  0  0  0  0  0  0  0  0  0  0  0
    2.4271    2.8532    0.0000 H   0  0  0  0  0  0  0  0  0  0  0  0
    3.4635    1.4266    0.0000 H   0  0  0  0  0  0  0  0  0  0  0  0
    0.4638    3.7807    0.0000 H   0  0  0  0  0  0  0  0  0  0  0  0
    1.7141    3.4574    0.0000 H   0  0  0  0  0  0  0  0  0  0  0  0
   -0.4638    3.7807    0.0000 H   0  0  0  0  0  0  0  0  0  0  0  0
   -0.9405    4.2869    0.0000 H   0  0  0  0  0  0  0  0  0  0  0  0
   -2.9866    2.0929    0.0000 H   0  0  0  0  0  0  0  0  0  0  0  0
   -4.0587    2.8581    0.0000 H   0  0  0  0  0  0  0  0  0  0  0  0
   -5.2723    3.7398    0.0000 H   0  0  0  0  0  0  0  0  0  0  0  0
   -3.6634    6.2652    0.0000 H   0  0  0  0  0  0  0  0  0  0  0  0
   -6.8176    6.7167    0.0000 H   0  0  0  0  0  0  0  0  0  0  0  0
   -4.8769    7.1469    0.0000 H   0  0  0  0  0  0  0  0  0  0  0  0
   -6.4858    4.6214    0.0000 H   0  0  0  0  0  0  0  0  0  0  0  0
   -3.3924    6.3082    0.0000 H   0  0  0  0  0  0  0  0  0  0  0  0
   -0.9834    4.5580    0.0000 H   0  0  0  0  0  0  0  0  0  0  0  0
   -0.2002    5.6170    0.0000 H   0  0  0  0  0  0  0  0  0  0  0  0
    0.5650    6.6892    0.0000 H   0  0  0  0  0  0  0  0  0  0  0  0
    0.7799    6.9850    0.0000 H   0  0  0  0  0  0  0  0  0  0  0  0
    1.5632    8.0440    0.0000 H   0  0  0  0  0  0  0  0  0  0  0  0
   -0.8639    9.8074    0.0000 H   0  0  0  0  0  0  0  0  0  0  0  0
    2.1130   11.3528    0.0000 H   0  0  0  0  0  0  0  0  0  0  0  0
    0.0178   11.0209    0.0000 H   0  0  0  0  0  0  0  0  0  0  0  0
    2.4449    9.2576    0.0000 H   0  0  0  0  0  0  0  0  0  0  0  0
   -1.6042    8.4774    0.0000 H   0  0  0  0  0  0  0  0  0  0  0  0
   -1.9000    8.6923    0.0000 H   0  0  0  0  0  0  0  0  0  0  0  0
   -2.9591    9.4756    0.0000 H   0  0  0  0  0  0  0  0  0  0  0  0
   -4.8638    7.1650    0.0000 H   0  0  0  0  0  0  0  0  0  0  0  0
   -6.2678   10.0254    0.0000 H   0  0  0  0  0  0  0  0  0  0  0  0
   -4.1726   10.3572    0.0000 H   0  0  0  0  0  0  0  0  0  0  0  0
   -5.9359    7.9302    0.0000 H   0  0  0  0  0  0  0  0  0  0  0  0
   -3.4635    1.4266    0.0000 H   0  0  0  0  0  0  0  0  0  0  0  0
   -2.7585    2.6986    0.0000 H   0  0  0  0  0  0  0  0  0  0  0  0
   -3.7390    0.7272    0.0000 H   0  0  0  0  0  0  0  0  0  0  0  0
   -4.8541   -1.7634    0.0000 H   0  0  0  0  0  0  0  0  0  0  0  0
   -4.5223    0.3318    0.0000 H   0  0  0  0  0  0  0  0  0  0  0  0
   -2.9134   -2.1936    0.0000 H   0  0  0  0  0  0  0  0  0  0  0  0
   -2.2497   -2.8990    0.0000 H   0  0  0  0  0  0  0  0  0  0  0  0
   -3.4189   -1.7895    0.0000 H   0  0  0  0  0  0  0  0  0  0  0  0
   -1.2135   -3.7348    0.0000 H   0  0  0  0  0  0  0  0  0  0  0  0
    0.1160   -3.6677    0.0000 H   0  0  0  0  0  0  0  0  0  0  0  0
    4.2741   -5.0946    0.0000 H   0  0  0  0  0  0  0  0  0  0  0  0
    2.4499   -5.3836    0.0000 H   0  0  0  0  0  0  0  0  0  0  0  0
    4.0587   -2.8581    0.0000 H   0  0  0  0  0  0  0  0  0  0  0  0
    2.4067   -0.5419    0.0000 H   0  0  0  0  0  0  0  0  0  0  0  0
    2.1789   -5.4265    0.0000 H   0  0  0  0  0  0  0  0  0  0  0  0
   -0.2301   -3.6763    0.0000 H   0  0  0  0  0  0  0  0  0  0  0  0
    1.4137   -6.4987    0.0000 H   0  0  0  0  0  0  0  0  0  0  0  0
   -1.0134   -4.7353    0.0000 H   0  0  0  0  0  0  0  0  0  0  0  0
   -1.5632   -8.0440    0.0000 H   0  0  0  0  0  0  0  0  0  0  0  0
   -1.8950   -5.9488    0.0000 H   0  0  0  0  0  0  0  0  0  0  0  0
    0.5320   -7.7122    0.0000 H   0  0  0  0  0  0  0  0  0  0  0  0
  1  2  2  3
  2  3  1  0
  2  4  1  0
  4  5  1  0
  5  6  1  0
  6  7  1  0
  4  8  1  0
  8  9  1  0
  9 10  1  0
 10 11  1  0
 11 12  1  0
 11 13  1  0
 13 14  1  0
  9 15  1  0
 15 16  1  0
 16 17  1  0
 17 18  1  0
 18 19  1  0
 19 20  1  0
 20 21  1  0
 21 22  1  0
 22 23  1  0
 23 24  1  0
 22 25  1  0
 25 26  1  0
 26 27  1  0
 27 28  1  0
 28 29  1  0
 26 30  1  0
 30 31  1  0
 31 32  1  0
 20 33  1  0
 33 34  1  0
 34 35  1  0
 34 36  1  0
 36 37  1  0
 37 38  1  0
 38 39  1  0
 39 40  1  0
 39 41  1  0
 39 42  1  0
 42 43  1  0
 43 44  1  0
  9  4  1  0
 38 16  1  0
  1 45  1  0
  1 46  1  0
  3 47  1  0
  3 48  1  0
  3 49  1  0
  5 50  1  0
  5 51  1  0
  6 52  1  0
  6 53  1  0
  7 54  1  0
  7 55  1  0
  7 56  1  0
  8 57  1  0
  8 58  1  0
 10 59  1  0
 10 60  1  0
 11 61  1  0
 12 62  1  0
 13 63  1  0
 13 64  1  0
 14 65  1  0
 14 66  1  0
 14 67  1  0
 15 68  1  0
 15 69  1  0
 16 70  1  0
 17 71  1  0
 17 72  1  0
 18 73  1  0
 18 74  1  0
 19 75  1  0
 19 76  1  0
 20 77  1  0
 21 78  1  0
 21 79  1  0
 22 80  1  0
 23 81  1  0
 23 82  1  0
 24 83  1  0
 24 84  1  0
 24 85  1  0
 25 86  1  0
 25 87  1  0
 26 88  1  0
 27 89  1  0
 27 90  1  0
 28 91  1  0
 28 92  1  0
 29 93  1  0
 29 94  1  0
 29 95  1  0
 30 96  1  0
 30 97  1  0
 31 98  1  0
 31 99  1  0
 32100  1  0
 32101  1  0
 32102  1  0
 33103  1  0
 33104  1  0
 34105  1  0
 35106  1  0
 35107  1  0
 35108  1  0
 36109  1  0
 36110  1  0
 37111  1  0
 38112  1  0
 40113  1  0
 40114  1  0
 40115  1  0
 41116  1  0
 42117  1  0
 42118  1  0
 43119  1  0
 43120  1  0
 44121  1  0
 44122  1  0
 44123  1  0
M  END
$$$$
