
     RDKit          2D

 54 57  0  0  0  0  0  0  0  0999 V2000
    1.0057   10.1705    0.0000 C   0  0  0  0  0  0  0  0  0  0  0  0
   -0.4943   10.1705    0.0000 C   0  0  0  0  0  0  0  0  0  0  0  0
   -1.9943   10.1705    0.0000 C   0  0  0  0  0  0  0  0  0  0  0  0
   -0.4943    8.6705    0.0000 C   0  0  0  0  0  0  0  0  0  0  0  0
   -1.9715    8.4101    0.0000 C   0  0  0  0  0  0  0  0  0  0  0  0
   -1.0073    7.2610    0.0000 C   0  0  0  0  0  0  0  0  0  0  0  0
    0.2917    6.5110    0.0000 C   0  0  0  0  0  0  0  0  0  0  0  0
    1.5908    5.7610    0.0000 C   0  0  0  0  0  0  0  0  0  0  0  0
    2.5550    4.6119    0.0000 C   0  0  0  0  0  0  0  0  0  0  0  0
    1.0777    4.3515    0.0000 C   0  0  0  0  0  0  0  0  0  0  0  0
    1.0777    2.8515    0.0000 C   0  0  0  0  0  0  0  0  0  0  0  0
    1.0777    1.3515    0.0000 C   0  0  0  0  0  0  0  0  0  0  0  0
    1.7286    0.0000    0.0000 C   0  0  0  0  0  0  0  0  0  0  0  0
    1.0777   -1.3515    0.0000 N   0  0  0  0  0  0  0  0  0  0  0  0
   -0.3846   -1.6852    0.0000 C   0  0  0  0  0  0  0  0  0  0  0  0
   -1.5574   -0.7500    0.0000 N   0  0  0  0  0  0  0  0  0  0  0  0
   -1.5574    0.7500    0.0000 C   0  0  0  0  0  0  0  0  0  0  0  0
   -2.9088    1.4008    0.0000 C   0  0  0  0  0  0  0  0  0  0  0  0
   -2.2580    2.7523    0.0000 C   0  0  0  0  0  0  0  0  0  0  0  0
   -3.6095    3.4031    0.0000 C   0  0  0  0  0  0  0  0  0  0  0  0
   -4.2603    2.0517    0.0000 N   0  0  0  0  0  0  0  0  0  0  0  0
   -0.3846    1.6852    0.0000 N   0  0  0  0  0  0  0  0  0  0  0  0
    2.5057   10.1705    0.0000 H   0  0  0  0  0  0  0  0  0  0  0  0
    1.0057   11.6705    0.0000 H   0  0  0  0  0  0  0  0  0  0  0  0
    1.2703    9.1095    0.0000 H   0  0  0  0  0  0  0  0  0  0  0  0
   -0.4943   11.6705    0.0000 H   0  0  0  0  0  0  0  0  0  0  0  0
   -3.2093   10.1705    0.0000 H   0  0  0  0  0  0  0  0  0  0  0  0
   -2.1872    9.3971    0.0000 H   0  0  0  0  0  0  0  0  0  0  0  0
   -1.9943   11.6705    0.0000 H   0  0  0  0  0  0  0  0  0  0  0  0
    0.5826    8.4806    0.0000 H   0  0  0  0  0  0  0  0  0  0  0  0
   -3.2705    7.6601    0.0000 H   0  0  0  0  0  0  0  0  0  0  0  0
   -2.5219    9.2259    0.0000 H   0  0  0  0  0  0  0  0  0  0  0  0
   -1.9715    6.1119    0.0000 H   0  0  0  0  0  0  0  0  0  0  0  0
   -0.6110    5.3131    0.0000 H   0  0  0  0  0  0  0  0  0  0  0  0
    1.3338    7.5899    0.0000 H   0  0  0  0  0  0  0  0  0  0  0  0
    2.5550    6.9101    0.0000 H   0  0  0  0  0  0  0  0  0  0  0  0
    3.8540    5.3619    0.0000 H   0  0  0  0  0  0  0  0  0  0  0  0
    3.2360    3.2754    0.0000 H   0  0  0  0  0  0  0  0  0  0  0  0
   -0.4202    4.4299    0.0000 H   0  0  0  0  0  0  0  0  0  0  0  0
   -0.4111    2.6686    0.0000 H   0  0  0  0  0  0  0  0  0  0  0  0
    2.5666    2.6686    0.0000 H   0  0  0  0  0  0  0  0  0  0  0  0
    2.4885    1.8610    0.0000 H   0  0  0  0  0  0  0  0  0  0  0  0
    3.0066    0.7853    0.0000 H   0  0  0  0  0  0  0  0  0  0  0  0
    2.9013   -0.9352    0.0000 H   0  0  0  0  0  0  0  0  0  0  0  0
    2.0130   -2.5242    0.0000 H   0  0  0  0  0  0  0  0  0  0  0  0
    0.2662   -3.0367    0.0000 H   0  0  0  0  0  0  0  0  0  0  0  0
   -1.5574   -2.6205    0.0000 H   0  0  0  0  0  0  0  0  0  0  0  0
   -2.9088   -1.4008    0.0000 H   0  0  0  0  0  0  0  0  0  0  0  0
   -3.5597    0.0494    0.0000 H   0  0  0  0  0  0  0  0  0  0  0  0
   -1.6072    4.1037    0.0000 H   0  0  0  0  0  0  0  0  0  0  0  0
   -0.8373    2.2710    0.0000 H   0  0  0  0  0  0  0  0  0  0  0  0
   -4.9609    4.0539    0.0000 H   0  0  0  0  0  0  0  0  0  0  0  0
   -2.9586    4.7546    0.0000 H   0  0  0  0  0  0  0  0  0  0  0  0
   -5.6761    1.5562    0.0000 H   0  0  0  0  0  0  0  0  0  0  0  0
  1  2  1  0
  2  3  1  0
  2  4  1  0
  4  5  1  0
  5  6  1  0
  6  7  1  0
  7  8  1  0
  8  9  1  0
  9 10  1  0
 10 11  1  0
 11 12  1  0
 12 13  1  0
 13 14  1  0
 14 15  1  0
 15 16  1  0
 16 17  1  0
 17 18  1  0
 18 19  1  0
 19 20  1  0
 20 21  1  0
 17 22  2  0
  6  4  1  0
 10  8  1  0
 22 12  1  0
 21 18  1  0
  1 23  1  0
  1 24  1  0
  1 25  1  0
  2 26  1  0
  3 27  1  0
  3 28  1  0
  3 29  1  0
  4 30  1  0
  5 31  1  0
  5 32  1  0
  6 33  1  0
  7 34  1  0
  7 35  1  0
  8 36  1  0
  9 37  1  0
  9 38  1  0
 10 39  1  0
 11 40  1  0
 11 41  1  0
 12 42  1  0
 13 43  1  0
 13 44  1  0
 14 45  1  0
 15 46  1  0
 15 47  1  0
 16 48  1  0
 18 49  1  0
 19 50  1  0
 19 51  1  0
 20 52  1  0
 20 53  1  0
 21 54  1  0
M  END
$$$$
