
     RDKit          2D

 24 23  0  0  0  0  0  0  0  0999 V2000
    0.0000    0.0000    0.0000 C   0  0  0  0  0  0  0  0  0  0  0  0
    1.5000    0.0000    0.0000 C   0  0  0  0  0  0  0  0  0  0  0  0
    1.5000   -1.5000    0.0000 O   0  0  0  0  0  0  0  0  0  0  0  0
    0.2010   -2.2500    0.0000 O   0  0  0  0  0  0  0  0  0  0  0  0
    3.0000    0.0000    0.0000 C   0  0  0  0  0  0  0  0  0  0  0  0
    4.5000    0.0000    0.0000 C   0  0  0  0  0  0  0  0  0  0  0  0
    6.0000    0.0000    0.0000 O   0  0  0  0  0  0  0  0  0  0  0  0
    3.0000    1.5000    0.0000 C   0  0  0  0  0  0  0  0  0  0  0  0
    3.0000    3.0000    0.0000 C   0  0  0  0  0  0  0  0  0  0  0  0
    3.0000    4.5000    0.0000 O   0  0  0  0  0  0  0  0  0  0  0  0
   -1.5000    0.0000    0.0000 H   0  0  0  0  0  0  0  0  0  0  0  0
    0.0000    1.5000    0.0000 H   0  0  0  0  0  0  0  0  0  0  0  0
   -0.3630   -1.4554    0.0000 H   0  0  0  0  0  0  0  0  0  0  0  0
    1.3920    0.8791    0.0000 H   0  0  0  0  0  0  0  0  0  0  0  0
    0.2010   -3.7500    0.0000 H   0  0  0  0  0  0  0  0  0  0  0  0
    3.0000   -1.5000    0.0000 H   0  0  0  0  0  0  0  0  0  0  0  0
    4.5000   -1.5000    0.0000 H   0  0  0  0  0  0  0  0  0  0  0  0
    4.6080    0.8791    0.0000 H   0  0  0  0  0  0  0  0  0  0  0  0
    6.7500   -1.2990    0.0000 H   0  0  0  0  0  0  0  0  0  0  0  0
    3.8791    1.6080    0.0000 H   0  0  0  0  0  0  0  0  0  0  0  0
    2.1209    1.6080    0.0000 H   0  0  0  0  0  0  0  0  0  0  0  0
    4.5000    3.0000    0.0000 H   0  0  0  0  0  0  0  0  0  0  0  0
    1.5000    3.0000    0.0000 H   0  0  0  0  0  0  0  0  0  0  0  0
    1.7010    5.2500    0.0000 H   0  0  0  0  0  0  0  0  0  0  0  0
  1  2  1  0
  2  3  1  0
  3  4  1  0
  2  5  1  0
  5  6  1  0
  6  7  1  0
  5  8  1  0
  8  9  1  0
  9 10  1  0
  1 11  1  0
  1 12  1  0
  1 13  1  0
  2 14  1  0
  4 15  1  0
  5 16  1  0
  6 17  1  0
  6 18  1  0
  7 19  1  0
  8 20  1  0
  8 21  1  0
  9 22  1  0
  9 23  1  0
 10 24  1  0
M  END
$$$$
