
     RDKit          2D

 47 47  0  0  0  0  0  0  0  0999 V2000
    5.1243    5.2131    0.0000 C   0  0  0  0  0  0  0  0  0  0  0  0
    5.4362    3.7458    0.0000 C   0  0  0  0  0  0  0  0  0  0  0  0
    5.7480    2.2786    0.0000 C   0  0  0  0  0  0  0  0  0  0  0  0
    6.0599    0.8114    0.0000 O   0  0  0  0  0  0  0  0  0  0  0  0
    7.4865    0.3479    0.0000 C   0  0  0  0  0  0  0  0  0  0  0  0
    7.0230   -1.0787    0.0000 C   0  0  0  0  0  0  0  0  0  0  0  0
    7.9500    1.7745    0.0000 C   0  0  0  0  0  0  0  0  0  0  0  0
    4.2808    1.9668    0.0000 O   0  0  0  0  0  0  0  0  0  0  0  0
    3.8173    0.5402    0.0000 C   0  0  0  0  0  0  0  0  0  0  0  0
    2.3907    1.0037    0.0000 O   0  0  0  0  0  0  0  0  0  0  0  0
    1.2760    0.0000    0.0000 C   0  0  0  0  0  0  0  0  0  0  0  0
    0.3943    1.2135    0.0000 C   0  0  0  0  0  0  0  0  0  0  0  0
   -1.0323    0.7500    0.0000 C   0  0  0  0  0  0  0  0  0  0  0  0
   -1.0323   -0.7500    0.0000 C   0  0  0  0  0  0  0  0  0  0  0  0
    0.3943   -1.2135    0.0000 C   0  0  0  0  0  0  0  0  0  0  0  0
    3.3538   -0.8864    0.0000 C   0  0  0  0  0  0  0  0  0  0  0  0
    4.7803   -1.3499    0.0000 O   0  0  0  0  0  0  0  0  0  0  0  0
    2.8902   -2.3130    0.0000 C   0  0  0  0  0  0  0  0  0  0  0  0
    2.4267   -3.7396    0.0000 O   0  0  0  0  0  0  0  0  0  0  0  0
    4.8124    6.6803    0.0000 H   0  0  0  0  0  0  0  0  0  0  0  0
    3.6571    4.9012    0.0000 H   0  0  0  0  0  0  0  0  0  0  0  0
    6.5915    5.5249    0.0000 H   0  0  0  0  0  0  0  0  0  0  0  0
    3.9689    3.4340    0.0000 H   0  0  0  0  0  0  0  0  0  0  0  0
    6.9034    4.0577    0.0000 H   0  0  0  0  0  0  0  0  0  0  0  0
    6.5017    2.5382    0.0000 H   0  0  0  0  0  0  0  0  0  0  0  0
    8.9131   -0.1156    0.0000 H   0  0  0  0  0  0  0  0  0  0  0  0
    6.5594   -2.5053    0.0000 H   0  0  0  0  0  0  0  0  0  0  0  0
    8.4495   -1.5422    0.0000 H   0  0  0  0  0  0  0  0  0  0  0  0
    5.6635   -0.4447    0.0000 H   0  0  0  0  0  0  0  0  0  0  0  0
    8.4135    3.2010    0.0000 H   0  0  0  0  0  0  0  0  0  0  0  0
    9.3766    1.3109    0.0000 H   0  0  0  0  0  0  0  0  0  0  0  0
    7.3305    2.2762    0.0000 H   0  0  0  0  0  0  0  0  0  0  0  0
    5.2897    0.2540    0.0000 H   0  0  0  0  0  0  0  0  0  0  0  0
    2.2600   -1.1321    0.0000 H   0  0  0  0  0  0  0  0  0  0  0  0
   -0.2158    2.5838    0.0000 H   0  0  0  0  0  0  0  0  0  0  0  0
    1.6933    1.9635    0.0000 H   0  0  0  0  0  0  0  0  0  0  0  0
   -2.5241    0.5932    0.0000 H   0  0  0  0  0  0  0  0  0  0  0  0
   -1.3442    2.2172    0.0000 H   0  0  0  0  0  0  0  0  0  0  0  0
   -1.3442   -2.2172    0.0000 H   0  0  0  0  0  0  0  0  0  0  0  0
   -2.5241   -0.5932    0.0000 H   0  0  0  0  0  0  0  0  0  0  0  0
    1.5922   -2.1163    0.0000 H   0  0  0  0  0  0  0  0  0  0  0  0
   -0.2158   -2.5838    0.0000 H   0  0  0  0  0  0  0  0  0  0  0  0
    1.8558   -0.9650    0.0000 H   0  0  0  0  0  0  0  0  0  0  0  0
    5.2687   -2.7682    0.0000 H   0  0  0  0  0  0  0  0  0  0  0  0
    4.2497   -2.9470    0.0000 H   0  0  0  0  0  0  0  0  0  0  0  0
    1.4178   -2.0268    0.0000 H   0  0  0  0  0  0  0  0  0  0  0  0
    3.4304   -4.8543    0.0000 H   0  0  0  0  0  0  0  0  0  0  0  0
  1  2  1  0
  2  3  1  0
  3  4  1  0
  4  5  1  0
  5  6  1  0
  5  7  1  0
  3  8  1  0
  8  9  1  0
  9 10  1  0
 10 11  1  0
 11 12  1  0
 12 13  1  0
 13 14  1  0
 14 15  1  0
  9 16  1  0
 16 17  1  0
 16 18  1  0
 18 19  1  0
 15 11  1  0
  1 20  1  0
  1 21  1  0
  1 22  1  0
  2 23  1  0
  2 24  1  0
  3 25  1  0
  5 26  1  0
  6 27  1  0
  6 28  1  0
  6 29  1  0
  7 30  1  0
  7 31  1  0
  7 32  1  0
  9 33  1  0
 11 34  1  0
 12 35  1  0
 12 36  1  0
 13 37  1  0
 13 38  1  0
 14 39  1  0
 14 40  1  0
 15 41  1  0
 15 42  1  0
 16 43  1  0
 17 44  1  0
 18 45  1  0
 18 46  1  0
 19 47  1  0
M  END
$$$$
