
     RDKit          2D

 24 24  0  0  0  0  0  0  0  0999 V2000
    1.6453    3.2623    0.0000 C   0  0  0  0  0  0  0  0  0  0  0  0
    2.7944    2.2981    0.0000 C   0  0  0  0  0  0  0  0  0  0  0  0
    3.9435    1.3340    0.0000 C   0  0  0  0  0  0  0  0  0  0  0  0
    3.7586    3.4472    0.0000 O   0  0  0  0  0  0  0  0  0  0  0  0
    1.8302    1.1491    0.0000 C   0  0  0  0  0  0  0  0  0  0  0  0
    0.8660    0.0000    0.0000 C   0  0  0  0  0  0  0  0  0  0  0  0
   -0.4330    0.7500    0.0000 C   0  0  0  0  0  0  0  0  0  0  0  0
   -0.4330   -0.7500    0.0000 C   0  0  0  0  0  0  0  0  0  0  0  0
    0.0800   -2.1595    0.0000 O   0  0  0  0  0  0  0  0  0  0  0  0
   -0.8842   -3.3086    0.0000 O   0  0  0  0  0  0  0  0  0  0  0  0
    0.4963    4.2265    0.0000 H   0  0  0  0  0  0  0  0  0  0  0  0
    2.6095    4.4114    0.0000 H   0  0  0  0  0  0  0  0  0  0  0  0
    0.8491    2.6839    0.0000 H   0  0  0  0  0  0  0  0  0  0  0  0
    5.0925    0.3698    0.0000 H   0  0  0  0  0  0  0  0  0  0  0  0
    5.0405    2.3569    0.0000 H   0  0  0  0  0  0  0  0  0  0  0  0
    3.4611    0.5911    0.0000 H   0  0  0  0  0  0  0  0  0  0  0  0
    5.2565    3.3687    0.0000 H   0  0  0  0  0  0  0  0  0  0  0  0
    1.0763    1.7817    0.0000 H   0  0  0  0  0  0  0  0  0  0  0  0
    2.4343    0.5013    0.0000 H   0  0  0  0  0  0  0  0  0  0  0  0
    1.8302   -1.1491    0.0000 H   0  0  0  0  0  0  0  0  0  0  0  0
   -1.9102    1.0105    0.0000 H   0  0  0  0  0  0  0  0  0  0  0  0
   -0.2763    2.2418    0.0000 H   0  0  0  0  0  0  0  0  0  0  0  0
   -1.9102   -1.0105    0.0000 H   0  0  0  0  0  0  0  0  0  0  0  0
   -0.3711   -4.7181    0.0000 H   0  0  0  0  0  0  0  0  0  0  0  0
  1  2  1  0
  2  3  1  0
  2  4  1  0
  2  5  1  0
  5  6  1  0
  6  7  1  0
  7  8  1  0
  8  9  1  0
  9 10  1  0
  8  6  1  0
  1 11  1  0
  1 12  1  0
  1 13  1  0
  3 14  1  0
  3 15  1  0
  3 16  1  0
  4 17  1  0
  5 18  1  0
  5 19  1  0
  6 20  1  0
  7 21  1  0
  7 22  1  0
  8 23  1  0
 10 24  1  0
M  END
$$$$
