
     RDKit          2D

 67 66  0  0  0  0  0  0  0  0999 V2000
    2.5981    4.5000    0.0000 C   0  0  0  0  0  0  0  0  0  0  0  0
    2.5981    3.0000    0.0000 C   0  0  0  0  0  0  0  0  0  0  0  0
    3.8971    2.2500    0.0000 C   0  0  0  0  0  0  0  0  0  0  0  0
    5.1962    1.5000    0.0000 C   0  0  0  0  0  0  0  0  0  0  0  0
    6.4952    0.7500    0.0000 C   0  0  0  0  0  0  0  0  0  0  0  0
    6.4952   -0.7500    0.0000 C   0  0  0  0  0  0  0  0  0  0  0  0
    7.7942   -1.5000    0.0000 C   0  0  0  0  0  0  0  0  0  0  0  0
    7.0442   -2.7990    0.0000 N   0  0  0  0  0  0  0  0  0  0  0  0
    9.0933   -2.2500    0.0000 C   0  0  0  0  0  0  0  0  0  0  0  0
   10.3923   -3.0000    0.0000 C   0  0  0  0  0  0  0  0  0  0  0  0
   11.6913   -3.7500    0.0000 C   0  0  0  0  0  0  0  0  0  0  0  0
   12.9904   -4.5000    0.0000 C   0  0  0  0  0  0  0  0  0  0  0  0
   14.2894   -5.2500    0.0000 C   0  0  0  0  0  0  0  0  0  0  0  0
   15.5885   -6.0000    0.0000 C   0  0  0  0  0  0  0  0  0  0  0  0
   16.8875   -6.7500    0.0000 C   0  0  0  0  0  0  0  0  0  0  0  0
   18.1865   -7.5000    0.0000 O   0  0  0  0  0  0  0  0  0  0  0  0
   17.6375   -5.4510    0.0000 O   0  0  0  0  0  0  0  0  0  0  0  0
   16.1375   -8.0490    0.0000 O   0  0  0  0  0  0  0  0  0  0  0  0
   16.8875   -9.3481    0.0000 C   0  0  0  0  0  0  0  0  0  0  0  0
   12.4413   -2.4510    0.0000 O   0  0  0  0  0  0  0  0  0  0  0  0
   13.9413   -2.4510    0.0000 C   0  0  0  0  0  0  0  0  0  0  0  0
   15.4413   -2.4510    0.0000 O   0  0  0  0  0  0  0  0  0  0  0  0
   16.1913   -3.7500    0.0000 O   0  0  0  0  0  0  0  0  0  0  0  0
   17.6913   -3.7500    0.0000 O   0  0  0  0  0  0  0  0  0  0  0  0
   13.9413   -0.9510    0.0000 O   0  0  0  0  0  0  0  0  0  0  0  0
   15.2404   -0.2010    0.0000 C   0  0  0  0  0  0  0  0  0  0  0  0
   15.9904   -1.5000    0.0000 C   0  0  0  0  0  0  0  0  0  0  0  0
   16.7404   -2.7990    0.0000 F   0  0  0  0  0  0  0  0  0  0  0  0
   14.4904    1.0981    0.0000 C   0  0  0  0  0  0  0  0  0  0  0  0
   13.7404    2.3971    0.0000 O   0  0  0  0  0  0  0  0  0  0  0  0
   12.2404    2.3971    0.0000 Se  0  0  0  0  0  2  0  0  0  0  0  0
   11.4904    3.6962    0.0000 Cl  0  0  0  0  0  0  0  0  0  0  0  0
    1.2990    5.2500    0.0000 H   0  0  0  0  0  0  0  0  0  0  0  0
    3.8971    5.2500    0.0000 H   0  0  0  0  0  0  0  0  0  0  0  0
    1.2990    2.2500    0.0000 H   0  0  0  0  0  0  0  0  0  0  0  0
    3.1471    0.9510    0.0000 H   0  0  0  0  0  0  0  0  0  0  0  0
    4.6471    3.5490    0.0000 H   0  0  0  0  0  0  0  0  0  0  0  0
    4.4462    0.2010    0.0000 H   0  0  0  0  0  0  0  0  0  0  0  0
    5.9462    2.7990    0.0000 H   0  0  0  0  0  0  0  0  0  0  0  0
    7.7942    1.5000    0.0000 H   0  0  0  0  0  0  0  0  0  0  0  0
    5.1962   -1.5000    0.0000 H   0  0  0  0  0  0  0  0  0  0  0  0
    8.5442   -0.2010    0.0000 H   0  0  0  0  0  0  0  0  0  0  0  0
    7.6303   -4.1798    0.0000 H   0  0  0  0  0  0  0  0  0  0  0  0
    5.5442   -2.7990    0.0000 H   0  0  0  0  0  0  0  0  0  0  0  0
    8.5072   -3.6308    0.0000 H   0  0  0  0  0  0  0  0  0  0  0  0
    9.8433   -0.9510    0.0000 H   0  0  0  0  0  0  0  0  0  0  0  0
    9.6423   -4.2990    0.0000 H   0  0  0  0  0  0  0  0  0  0  0  0
   11.1423   -1.7010    0.0000 H   0  0  0  0  0  0  0  0  0  0  0  0
   10.9413   -5.0490    0.0000 H   0  0  0  0  0  0  0  0  0  0  0  0
   12.2404   -5.7990    0.0000 H   0  0  0  0  0  0  0  0  0  0  0  0
   14.1562   -3.5561    0.0000 H   0  0  0  0  0  0  0  0  0  0  0  0
   13.5394   -6.5490    0.0000 H   0  0  0  0  0  0  0  0  0  0  0  0
   15.0394   -3.9510    0.0000 H   0  0  0  0  0  0  0  0  0  0  0  0
   14.8385   -7.2990    0.0000 H   0  0  0  0  0  0  0  0  0  0  0  0
   16.3385   -4.7010    0.0000 H   0  0  0  0  0  0  0  0  0  0  0  0
   18.2837   -8.2912    0.0000 H   0  0  0  0  0  0  0  0  0  0  0  0
   19.1263   -5.6338    0.0000 H   0  0  0  0  0  0  0  0  0  0  0  0
   17.6375  -10.6471    0.0000 H   0  0  0  0  0  0  0  0  0  0  0  0
   15.5885  -10.0981    0.0000 H   0  0  0  0  0  0  0  0  0  0  0  0
   17.7028   -9.0020    0.0000 H   0  0  0  0  0  0  0  0  0  0  0  0
   14.1242   -3.9398    0.0000 H   0  0  0  0  0  0  0  0  0  0  0  0
   18.8571   -4.6939    0.0000 H   0  0  0  0  0  0  0  0  0  0  0  0
   16.5394    0.5490    0.0000 H   0  0  0  0  0  0  0  0  0  0  0  0
   17.2894   -0.7500    0.0000 H   0  0  0  0  0  0  0  0  0  0  0  0
   15.1956   -2.7722    0.0000 H   0  0  0  0  0  0  0  0  0  0  0  0
   15.7894    1.8481    0.0000 H   0  0  0  0  0  0  0  0  0  0  0  0
   13.1913    0.3481    0.0000 H   0  0  0  0  0  0  0  0  0  0  0  0
  1  2  2  3
  2  3  1  0
  3  4  1  0
  4  5  1  0
  5  6  2  3
  6  7  1  0
  7  8  1  0
  7  9  1  0
  9 10  1  0
 10 11  1  0
 11 12  1  0
 12 13  1  0
 13 14  1  0
 14 15  1  0
 15 16  1  0
 15 17  1  0
 15 18  1  0
 18 19  1  0
 11 20  1  0
 20 21  1  0
 21 22  1  0
 22 23  1  0
 23 24  1  0
 21 25  1  0
 25 26  1  0
 26 27  1  0
 27 28  1  0
 26 29  1  0
 29 30  1  0
 30 31  1  0
 31 32  1  0
  1 33  1  0
  1 34  1  0
  2 35  1  0
  3 36  1  0
  3 37  1  0
  4 38  1  0
  4 39  1  0
  5 40  1  0
  6 41  1  0
  7 42  1  6
  8 43  1  0
  8 44  1  0
  9 45  1  0
  9 46  1  0
 10 47  1  0
 10 48  1  0
 11 49  1  1
 12 50  1  0
 12 51  1  0
 13 52  1  0
 13 53  1  0
 14 54  1  0
 14 55  1  0
 16 56  1  0
 17 57  1  0
 19 58  1  0
 19 59  1  0
 19 60  1  0
 21 61  1  1
 24 62  1  0
 26 63  1  6
 27 64  1  0
 27 65  1  0
 29 66  1  0
 29 67  1  0
M  END
$$$$
