
     RDKit          2D

 37 42  0  0  0  0  0  0  0  0999 V2000
    2.7944    2.2981    0.0000 N   0  0  0  0  0  0  0  0  0  0  0  0
    1.8302    1.1491    0.0000 C   0  0  0  0  0  0  0  0  0  0  0  0
    0.8660    0.0000    0.0000 C   0  0  0  0  0  0  0  0  0  0  0  0
   -0.4330    0.7500    0.0000 C   0  0  0  0  0  0  0  0  0  0  0  0
   -1.9330    0.7500    0.0000 C   0  0  0  0  0  0  0  0  0  0  0  0
   -3.3596    1.2135    0.0000 C   0  0  0  0  0  0  0  0  0  0  0  0
   -4.2413   -0.0000    0.0000 C   0  0  0  0  0  0  0  0  0  0  0  0
   -5.5403    0.7500    0.0000 C   0  0  0  0  0  0  0  0  0  0  0  0
   -6.2903   -0.5490    0.0000 C   0  0  0  0  0  0  0  0  0  0  0  0
   -7.5894    0.2010    0.0000 C   0  0  0  0  0  0  0  0  0  0  0  0
   -8.3394    1.5000    0.0000 C   0  0  0  0  0  0  0  0  0  0  0  0
   -6.8394    1.5000    0.0000 C   0  0  0  0  0  0  0  0  0  0  0  0
   -4.8514   -1.3703    0.0000 C   0  0  0  0  0  0  0  0  0  0  0  0
   -3.3596   -1.2135    0.0000 C   0  0  0  0  0  0  0  0  0  0  0  0
   -1.9330   -0.7500    0.0000 C   0  0  0  0  0  0  0  0  0  0  0  0
   -0.4330   -0.7500    0.0000 C   0  0  0  0  0  0  0  0  0  0  0  0
    2.2814    3.7077    0.0000 H   0  0  0  0  0  0  0  0  0  0  0  0
    4.2716    2.0377    0.0000 H   0  0  0  0  0  0  0  0  0  0  0  0
    0.8072    2.2461    0.0000 H   0  0  0  0  0  0  0  0  0  0  0  0
    2.9793    0.1849    0.0000 H   0  0  0  0  0  0  0  0  0  0  0  0
    1.8302   -1.1491    0.0000 H   0  0  0  0  0  0  0  0  0  0  0  0
   -0.2243    2.2354    0.0000 H   0  0  0  0  0  0  0  0  0  0  0  0
   -1.6984    2.2315    0.0000 H   0  0  0  0  0  0  0  0  0  0  0  0
   -2.7495    2.5838    0.0000 H   0  0  0  0  0  0  0  0  0  0  0  0
   -4.1456    1.8058    0.0000 H   0  0  0  0  0  0  0  0  0  0  0  0
   -5.1558    1.6559    0.0000 H   0  0  0  0  0  0  0  0  0  0  0  0
   -6.7824   -1.4013    0.0000 H   0  0  0  0  0  0  0  0  0  0  0  0
   -5.7169   -1.1028    0.0000 H   0  0  0  0  0  0  0  0  0  0  0  0
   -8.6500   -0.8597    0.0000 H   0  0  0  0  0  0  0  0  0  0  0  0
   -9.7489    0.9870    0.0000 H   0  0  0  0  0  0  0  0  0  0  0  0
   -8.5998    2.9772    0.0000 H   0  0  0  0  0  0  0  0  0  0  0  0
   -6.4511    2.9489    0.0000 H   0  0  0  0  0  0  0  0  0  0  0  0
   -5.7371   -1.3704    0.0000 H   0  0  0  0  0  0  0  0  0  0  0  0
   -4.9560   -2.8667    0.0000 H   0  0  0  0  0  0  0  0  0  0  0  0
   -3.0477   -2.6807    0.0000 H   0  0  0  0  0  0  0  0  0  0  0  0
   -1.6984   -2.2315    0.0000 H   0  0  0  0  0  0  0  0  0  0  0  0
   -0.0448   -2.1989    0.0000 H   0  0  0  0  0  0  0  0  0  0  0  0
  1  2  1  0
  2  3  1  0
  3  4  1  0
  4  5  1  0
  5  6  1  0
  6  7  1  0
  7  8  1  0
  8  9  1  0
  9 10  1  0
 10 11  1  0
 11 12  1  0
  7 13  1  0
 13 14  1  0
 14 15  1  0
 15 16  1  0
 16  3  1  0
 16  4  1  0
 15  5  1  0
 14  7  1  0
 12  8  1  0
 12 10  1  0
  1 17  1  0
  1 18  1  0
  2 19  1  0
  2 20  1  0
  3 21  1  0
  4 22  1  0
  5 23  1  0
  6 24  1  0
  6 25  1  0
  8 26  1  0
  9 27  1  0
  9 28  1  0
 10 29  1  0
 11 30  1  0
 11 31  1  0
 12 32  1  0
 13 33  1  0
 13 34  1  0
 14 35  1  0
 15 36  1  0
 16 37  1  0
M  END
$$$$
