
     RDKit          2D

 28 31  0  0  0  0  0  0  0  0999 V2000
   -5.7927   -8.5333    0.0000 C   0  0  0  0  0  0  0  0  0  0  0  0
   -5.0427   -7.2342    0.0000 C   0  0  0  0  0  0  0  0  0  0  0  0
   -3.7437   -7.9842    0.0000 O   0  0  0  0  0  0  0  0  0  0  0  0
   -4.2927   -5.9352    0.0000 N   0  0  0  0  0  0  0  0  0  0  0  0
   -4.6809   -4.4863    0.0000 C   0  0  0  0  0  0  0  0  0  0  0  0
   -3.2321   -4.0981    0.0000 N   0  0  0  0  0  0  0  0  0  0  0  0
   -2.4821   -2.7990    0.0000 C   0  0  0  0  0  0  0  0  0  0  0  0
   -1.7321   -1.5000    0.0000 N   0  0  0  0  0  0  0  0  0  0  0  0
   -1.7321    0.0000    0.0000 C   0  0  0  0  0  0  0  0  0  0  0  0
   -0.4330    0.7500    0.0000 C   0  0  0  0  0  0  0  0  0  0  0  0
    0.8660    0.0000    0.0000 C   0  0  0  0  0  0  0  0  0  0  0  0
   -0.4330   -0.7500    0.0000 C   0  0  0  0  0  0  0  0  0  0  0  0
   -2.8438   -5.5470    0.0000 C   0  0  0  0  0  0  0  0  0  0  0  0
   -6.5427   -9.8323    0.0000 H   0  0  0  0  0  0  0  0  0  0  0  0
   -7.0917   -7.7833    0.0000 H   0  0  0  0  0  0  0  0  0  0  0  0
   -4.5948   -9.4360    0.0000 H   0  0  0  0  0  0  0  0  0  0  0  0
   -6.3417   -6.4842    0.0000 H   0  0  0  0  0  0  0  0  0  0  0  0
   -3.5608   -9.4730    0.0000 H   0  0  0  0  0  0  0  0  0  0  0  0
   -6.1298   -4.8745    0.0000 H   0  0  0  0  0  0  0  0  0  0  0  0
   -5.0692   -3.0374    0.0000 H   0  0  0  0  0  0  0  0  0  0  0  0
   -1.1830   -3.5490    0.0000 H   0  0  0  0  0  0  0  0  0  0  0  0
   -3.7811   -2.0490    0.0000 H   0  0  0  0  0  0  0  0  0  0  0  0
   -3.0311    0.7500    0.0000 H   0  0  0  0  0  0  0  0  0  0  0  0
   -0.4330    2.2500    0.0000 H   0  0  0  0  0  0  0  0  0  0  0  0
    1.8302    1.1491    0.0000 H   0  0  0  0  0  0  0  0  0  0  0  0
    1.8302   -1.1491    0.0000 H   0  0  0  0  0  0  0  0  0  0  0  0
   -1.3949   -5.1587    0.0000 H   0  0  0  0  0  0  0  0  0  0  0  0
   -2.4556   -6.9959    0.0000 H   0  0  0  0  0  0  0  0  0  0  0  0
  1  2  1  0
  2  3  1  0
  2  4  1  0
  4  5  1  0
  5  6  1  0
  6  7  1  0
  7  8  1  0
  8  9  1  0
  9 10  1  0
 10 11  1  0
 11 12  1  0
  6 13  1  0
 13  4  1  0
 12  8  1  1
 12  9  1  0
 12 10  1  0
  1 14  1  0
  1 15  1  0
  1 16  1  0
  2 17  1  6
  3 18  1  0
  5 19  1  0
  5 20  1  0
  7 21  1  0
  7 22  1  0
  9 23  1  6
 10 24  1  6
 11 25  1  0
 11 26  1  0
 13 27  1  0
 13 28  1  0
M  END
$$$$
