
     RDKit          2D

 19 21  0  0  0  0  0  0  0  0999 V2000
   -0.4330    2.2500    0.0000 O   0  0  0  0  0  1  0  0  0  0  0  0
   -0.4330    0.7500    0.0000 C   0  0  0  0  0  0  0  0  0  0  0  0
    0.8660    0.0000    0.0000 N   0  0  0  0  0  2  0  0  0  0  0  0
   -0.4330   -0.7500    0.0000 C   0  0  0  0  0  0  0  0  0  0  0  0
   -1.7321    0.0000    0.0000 N   0  0  0  0  0  0  0  0  0  0  0  0
   -3.2321    0.0000    0.0000 N   0  0  0  0  0  0  0  0  0  0  0  0
   -3.9821    1.2990    0.0000 C   0  0  0  0  0  0  0  0  0  0  0  0
   -4.7321    2.5981    0.0000 C   0  0  0  0  0  0  0  0  0  0  0  0
   -3.5830    3.5623    0.0000 F   0  0  0  0  0  0  0  0  0  0  0  0
   -5.8811    3.5623    0.0000 C   0  0  0  0  0  0  0  0  0  0  0  0
   -6.1416    2.0850    0.0000 C   0  0  0  0  0  0  0  0  0  0  0  0
   -0.4330   -2.2500    0.0000 H   0  0  0  0  0  0  0  0  0  0  0  0
   -3.9821   -1.2990    0.0000 H   0  0  0  0  0  0  0  0  0  0  0  0
   -2.6830    2.0490    0.0000 H   0  0  0  0  0  0  0  0  0  0  0  0
   -5.0602    0.4866    0.0000 H   0  0  0  0  0  0  0  0  0  0  0  0
   -5.1311    4.8613    0.0000 H   0  0  0  0  0  0  0  0  0  0  0  0
   -7.2907    4.0753    0.0000 H   0  0  0  0  0  0  0  0  0  0  0  0
   -7.6416    2.0850    0.0000 H   0  0  0  0  0  0  0  0  0  0  0  0
   -6.0710    0.7369    0.0000 H   0  0  0  0  0  0  0  0  0  0  0  0
  1  2  1  0
  2  3  1  0
  3  4  1  0
  4  5  1  0
  5  6  1  0
  6  7  1  0
  7  8  1  0
  8  9  1  0
  8 10  1  0
 10 11  1  0
  4  2  1  0
 11  8  1  0
  5  2  1  0
  4 12  1  0
  6 13  1  0
  7 14  1  0
  7 15  1  0
 10 16  1  0
 10 17  1  0
 11 18  1  0
 11 19  1  0
M  RAD  2   1   2   3   2
M  END
$$$$
