
     RDKit          2D

 37 38  0  0  0  0  0  0  0  0999 V2000
   -1.9223    2.8515    0.0000 C   0  0  0  0  0  0  0  0  0  0  0  0
   -0.4223    2.8515    0.0000 C   0  0  0  0  0  0  0  0  0  0  0  0
    1.0777    2.8515    0.0000 C   0  0  0  0  0  0  0  0  0  0  0  0
    2.5777    2.8515    0.0000 C   0  0  0  0  0  0  0  0  0  0  0  0
    3.9873    3.3645    0.0000 C   0  0  0  0  0  0  0  0  0  0  0  0
    2.8382    4.3287    0.0000 O   0  0  0  0  0  0  0  0  0  0  0  0
    1.0777    1.3515    0.0000 C   0  0  0  0  0  0  0  0  0  0  0  0
    1.7286    0.0000    0.0000 C   0  0  0  0  0  0  0  0  0  0  0  0
    1.0777   -1.3515    0.0000 C   0  0  0  0  0  0  0  0  0  0  0  0
   -0.3846   -1.6852    0.0000 C   0  0  0  0  0  0  0  0  0  0  0  0
   -1.5574   -0.7500    0.0000 C   0  0  0  0  0  0  0  0  0  0  0  0
   -1.5574    0.7500    0.0000 C   0  0  0  0  0  0  0  0  0  0  0  0
   -0.3846    1.6852    0.0000 C   0  0  0  0  0  0  0  0  0  0  0  0
   -1.5574    2.6205    0.0000 C   0  0  0  0  0  0  0  0  0  0  0  0
   -2.7301    3.5557    0.0000 O   0  0  0  0  0  0  0  0  0  0  0  0
   -3.4223    2.8515    0.0000 H   0  0  0  0  0  0  0  0  0  0  0  0
   -2.6266    1.5271    0.0000 H   0  0  0  0  0  0  0  0  0  0  0  0
   -1.7394    4.3403    0.0000 H   0  0  0  0  0  0  0  0  0  0  0  0
   -0.2394    4.3403    0.0000 H   0  0  0  0  0  0  0  0  0  0  0  0
   -0.7852    1.3960    0.0000 H   0  0  0  0  0  0  0  0  0  0  0  0
    1.0777    4.3515    0.0000 H   0  0  0  0  0  0  0  0  0  0  0  0
    3.0163    1.4170    0.0000 H   0  0  0  0  0  0  0  0  0  0  0  0
    4.7373    2.0654    0.0000 H   0  0  0  0  0  0  0  0  0  0  0  0
    5.1364    4.3287    0.0000 H   0  0  0  0  0  0  0  0  0  0  0  0
    2.5699    1.5045    0.0000 H   0  0  0  0  0  0  0  0  0  0  0  0
    3.2286   -0.0000    0.0000 H   0  0  0  0  0  0  0  0  0  0  0  0
    2.0130   -2.5242    0.0000 H   0  0  0  0  0  0  0  0  0  0  0  0
    0.2662   -3.0367    0.0000 H   0  0  0  0  0  0  0  0  0  0  0  0
   -1.4346   -2.7564    0.0000 H   0  0  0  0  0  0  0  0  0  0  0  0
   -2.3681   -2.0120    0.0000 H   0  0  0  0  0  0  0  0  0  0  0  0
   -3.0496   -0.5970    0.0000 H   0  0  0  0  0  0  0  0  0  0  0  0
   -3.0496    0.5970    0.0000 H   0  0  0  0  0  0  0  0  0  0  0  0
   -2.5159    1.9038    0.0000 H   0  0  0  0  0  0  0  0  0  0  0  0
   -0.0802    3.1540    0.0000 H   0  0  0  0  0  0  0  0  0  0  0  0
   -0.7721    3.8985    0.0000 H   0  0  0  0  0  0  0  0  0  0  0  0
   -2.4926    1.4477    0.0000 H   0  0  0  0  0  0  0  0  0  0  0  0
   -2.6890    5.0551    0.0000 H   0  0  0  0  0  0  0  0  0  0  0  0
  1  2  1  0
  2  3  1  0
  3  4  1  0
  4  5  1  0
  5  6  1  0
  3  7  1  0
  7  8  1  0
  8  9  2  0
  9 10  1  0
 10 11  1  0
 11 12  1  0
 12 13  1  0
 13 14  1  0
 14 15  1  0
  6  4  1  0
 13  7  1  0
  1 16  1  0
  1 17  1  0
  1 18  1  0
  2 19  1  0
  2 20  1  0
  3 21  1  0
  4 22  1  0
  5 23  1  0
  5 24  1  0
  7 25  1  0
  8 26  1  0
  9 27  1  0
 10 28  1  0
 10 29  1  0
 11 30  1  0
 11 31  1  0
 12 32  1  0
 12 33  1  0
 13 34  1  0
 14 35  1  0
 14 36  1  0
 15 37  1  0
M  END
$$$$
