
     RDKit          2D

 60 64  0  0  0  0  0  0  0  0999 V2000
   -2.9278    5.4813    0.0000 C   0  0  0  0  0  0  0  0  0  0  0  0
   -1.4360    5.3245    0.0000 C   0  0  0  0  0  0  0  0  0  0  0  0
   -0.8259    3.9542    0.0000 C   0  0  0  0  0  0  0  0  0  0  0  0
   -0.2158    2.5838    0.0000 C   0  0  0  0  0  0  0  0  0  0  0  0
    0.3943    1.2135    0.0000 C   0  0  0  0  0  0  0  0  0  0  0  0
    1.2760    0.0000    0.0000 C   0  0  0  0  0  0  0  0  0  0  0  0
    0.3943   -1.2135    0.0000 C   0  0  0  0  0  0  0  0  0  0  0  0
   -1.0323   -0.7500    0.0000 C   0  0  0  0  0  0  0  0  0  0  0  0
   -1.0323    0.7500    0.0000 C   0  0  0  0  0  0  0  0  0  0  0  0
   -0.5543    6.5380    0.0000 C   0  0  0  0  0  0  0  0  0  0  0  0
   -1.1644    7.9083    0.0000 C   0  0  0  0  0  0  0  0  0  0  0  0
   -0.2828    9.1218    0.0000 C   0  0  0  0  0  0  0  0  0  0  0  0
    0.5989   10.3354    0.0000 C   0  0  0  0  0  0  0  0  0  0  0  0
   -1.4963   10.0035    0.0000 C   0  0  0  0  0  0  0  0  0  0  0  0
   -0.6146   11.2171    0.0000 O   0  0  0  0  0  0  0  0  0  0  0  0
   -2.3780    8.7900    0.0000 O   0  0  0  0  0  0  0  0  0  0  0  0
   -2.7098   10.8852    0.0000 C   0  0  0  0  0  0  0  0  0  0  0  0
   -2.0523   12.2334    0.0000 C   0  0  0  0  0  0  0  0  0  0  0  0
   -2.8910   13.4770    0.0000 N   0  0  0  0  0  0  0  0  0  0  0  0
   -3.5486   12.1288    0.0000 C   0  0  0  0  0  0  0  0  0  0  0  0
    0.9374    6.3812    0.0000 C   0  0  0  0  0  0  0  0  0  0  0  0
    2.4292    6.2244    0.0000 C   0  0  0  0  0  0  0  0  0  0  0  0
    3.9210    6.0676    0.0000 C   0  0  0  0  0  0  0  0  0  0  0  0
    4.3345    7.5095    0.0000 C   0  0  0  0  0  0  0  0  0  0  0  0
    5.7899    7.8724    0.0000 C   0  0  0  0  0  0  0  0  0  0  0  0
    5.3765    6.4305    0.0000 N   0  0  0  0  0  0  0  0  0  0  0  0
   -3.5379    6.8516    0.0000 H   0  0  0  0  0  0  0  0  0  0  0  0
   -3.8095    4.2677    0.0000 H   0  0  0  0  0  0  0  0  0  0  0  0
   -2.1962    3.3441    0.0000 H   0  0  0  0  0  0  0  0  0  0  0  0
    0.6086    4.3927    0.0000 H   0  0  0  0  0  0  0  0  0  0  0  0
   -0.9781    2.3508    0.0000 H   0  0  0  0  0  0  0  0  0  0  0  0
    1.1545    3.1939    0.0000 H   0  0  0  0  0  0  0  0  0  0  0  0
    1.6933    1.9635    0.0000 H   0  0  0  0  0  0  0  0  0  0  0  0
    2.3907    1.0037    0.0000 H   0  0  0  0  0  0  0  0  0  0  0  0
    2.3907   -1.0037    0.0000 H   0  0  0  0  0  0  0  0  0  0  0  0
    1.6933   -1.9635    0.0000 H   0  0  0  0  0  0  0  0  0  0  0  0
   -0.2158   -2.5838    0.0000 H   0  0  0  0  0  0  0  0  0  0  0  0
   -1.3442   -2.2172    0.0000 H   0  0  0  0  0  0  0  0  0  0  0  0
   -2.5241   -0.5932    0.0000 H   0  0  0  0  0  0  0  0  0  0  0  0
   -2.5241    0.5932    0.0000 H   0  0  0  0  0  0  0  0  0  0  0  0
   -1.2918    1.5037    0.0000 H   0  0  0  0  0  0  0  0  0  0  0  0
   -2.6498    7.6995    0.0000 H   0  0  0  0  0  0  0  0  0  0  0  0
    1.0292    8.3947    0.0000 H   0  0  0  0  0  0  0  0  0  0  0  0
    1.4806   11.5489    0.0000 H   0  0  0  0  0  0  0  0  0  0  0  0
    1.8124    9.4537    0.0000 H   0  0  0  0  0  0  0  0  0  0  0  0
   -0.3652   11.4845    0.0000 H   0  0  0  0  0  0  0  0  0  0  0  0
   -1.0531   12.6515    0.0000 H   0  0  0  0  0  0  0  0  0  0  0  0
   -3.8777    8.7638    0.0000 H   0  0  0  0  0  0  0  0  0  0  0  0
   -3.9078    9.9825    0.0000 H   0  0  0  0  0  0  0  0  0  0  0  0
   -0.5798   12.5196    0.0000 H   0  0  0  0  0  0  0  0  0  0  0  0
   -2.9957   14.9733    0.0000 H   0  0  0  0  0  0  0  0  0  0  0  0
   -5.0450   12.0241    0.0000 H   0  0  0  0  0  0  0  0  0  0  0  0
    1.2749    7.8428    0.0000 H   0  0  0  0  0  0  0  0  0  0  0  0
    0.9637    4.8814    0.0000 H   0  0  0  0  0  0  0  0  0  0  0  0
    2.5860    7.7162    0.0000 H   0  0  0  0  0  0  0  0  0  0  0  0
    2.2724    4.7326    0.0000 H   0  0  0  0  0  0  0  0  0  0  0  0
    4.0256    4.5713    0.0000 H   0  0  0  0  0  0  0  0  0  0  0  0
    3.2925    8.5885    0.0000 H   0  0  0  0  0  0  0  0  0  0  0  0
    5.6853    9.3687    0.0000 H   0  0  0  0  0  0  0  0  0  0  0  0
    7.2817    7.7156    0.0000 H   0  0  0  0  0  0  0  0  0  0  0  0
  1  2  2  3
  2  3  1  0
  3  4  1  0
  4  5  1  0
  5  6  1  0
  6  7  1  0
  7  8  1  0
  8  9  1  0
  2 10  1  0
 10 11  2  3
 11 12  1  0
 12 13  1  0
 12 14  1  0
 14 15  1  0
 14 16  1  0
 14 17  1  0
 17 18  1  0
 18 19  1  0
 19 20  1  0
 10 21  1  0
 21 22  1  0
 22 23  1  0
 23 24  1  0
 24 25  1  0
 25 26  1  0
  9  5  1  0
 20 17  1  0
 26 23  1  0
 20 18  1  0
 26 24  1  0
  1 27  1  0
  1 28  1  0
  3 29  1  0
  3 30  1  0
  4 31  1  0
  4 32  1  0
  5 33  1  0
  6 34  1  0
  6 35  1  0
  7 36  1  0
  7 37  1  0
  8 38  1  0
  8 39  1  0
  9 40  1  0
  9 41  1  0
 11 42  1  0
 12 43  1  6
 13 44  1  0
 13 45  1  0
 13 46  1  0
 15 47  1  0
 16 48  1  0
 17 49  1  1
 18 50  1  6
 19 51  1  0
 20 52  1  6
 21 53  1  0
 21 54  1  0
 22 55  1  0
 22 56  1  0
 23 57  1  6
 24 58  1  1
 25 59  1  0
 25 60  1  0
M  END
$$$$
