
     RDKit          2D

 55 58  0  0  0  0  0  0  0  0999 V2000
    5.1844    4.2847    0.0000 C   0  0  0  0  0  0  0  0  0  0  0  0
    3.9812    3.3889    0.0000 C   0  0  0  0  0  0  0  0  0  0  0  0
    4.1553    1.8991    0.0000 C   0  0  0  0  0  0  0  0  0  0  0  0
    2.6781    2.1595    0.0000 C   0  0  0  0  0  0  0  0  0  0  0  0
    1.3791    1.4095    0.0000 O   0  0  0  0  0  0  0  0  0  0  0  0
    0.8660    0.0000    0.0000 C   0  0  0  0  0  0  0  0  0  0  0  0
    1.3791   -1.4095    0.0000 O   0  0  0  0  0  0  0  0  0  0  0  0
    2.6781   -2.1595    0.0000 C   0  0  0  0  0  0  0  0  0  0  0  0
    4.1553   -1.8991    0.0000 C   0  0  0  0  0  0  0  0  0  0  0  0
    5.1195   -0.7500    0.0000 C   0  0  0  0  0  0  0  0  0  0  0  0
    6.5565   -0.3198    0.0000 C   0  0  0  0  0  0  0  0  0  0  0  0
    5.1195    0.7500    0.0000 O   0  0  0  0  0  0  0  0  0  0  0  0
   -0.4330    0.7500    0.0000 C   0  0  0  0  0  0  0  0  0  0  0  0
   -1.7321    0.0000    0.0000 C   0  0  0  0  0  0  0  0  0  0  0  0
   -2.6962    1.1491    0.0000 C   0  0  0  0  0  0  0  0  0  0  0  0
   -3.6604    2.2981    0.0000 C   0  0  0  0  0  0  0  0  0  0  0  0
   -0.4330   -0.7500    0.0000 C   0  0  0  0  0  0  0  0  0  0  0  0
   -0.4330   -2.2500    0.0000 C   0  0  0  0  0  0  0  0  0  0  0  0
   -0.4330   -3.7500    0.0000 C   0  0  0  0  0  0  0  0  0  0  0  0
   -0.4330   -5.2500    0.0000 C   0  0  0  0  0  0  0  0  0  0  0  0
   -0.4330   -6.7500    0.0000 C   0  0  0  0  0  0  0  0  0  0  0  0
   -0.9460   -8.1595    0.0000 C   0  0  0  0  0  0  0  0  0  0  0  0
   -1.9102   -7.0105    0.0000 C   0  0  0  0  0  0  0  0  0  0  0  0
    5.0102    5.7745    0.0000 H   0  0  0  0  0  0  0  0  0  0  0  0
    6.5617    3.6905    0.0000 H   0  0  0  0  0  0  0  0  0  0  0  0
    3.2167    3.8363    0.0000 H   0  0  0  0  0  0  0  0  0  0  0  0
    5.5326    2.4932    0.0000 H   0  0  0  0  0  0  0  0  0  0  0  0
    1.5870    3.1889    0.0000 H   0  0  0  0  0  0  0  0  0  0  0  0
    2.7655    3.0410    0.0000 H   0  0  0  0  0  0  0  0  0  0  0  0
    3.1829   -3.5721    0.0000 H   0  0  0  0  0  0  0  0  0  0  0  0
    1.8164   -3.1988    0.0000 H   0  0  0  0  0  0  0  0  0  0  0  0
    5.4499   -2.6566    0.0000 H   0  0  0  0  0  0  0  0  0  0  0  0
    4.1641   -3.3990    0.0000 H   0  0  0  0  0  0  0  0  0  0  0  0
    5.9933   -1.7791    0.0000 H   0  0  0  0  0  0  0  0  0  0  0  0
    7.9935    0.1104    0.0000 H   0  0  0  0  0  0  0  0  0  0  0  0
    6.9437   -1.6131    0.0000 H   0  0  0  0  0  0  0  0  0  0  0  0
    6.1263    1.1172    0.0000 H   0  0  0  0  0  0  0  0  0  0  0  0
   -0.4330    2.2500    0.0000 H   0  0  0  0  0  0  0  0  0  0  0  0
   -2.6962   -1.1491    0.0000 H   0  0  0  0  0  0  0  0  0  0  0  0
   -3.8453    0.1849    0.0000 H   0  0  0  0  0  0  0  0  0  0  0  0
   -1.5472    2.1132    0.0000 H   0  0  0  0  0  0  0  0  0  0  0  0
   -4.6246    3.4472    0.0000 H   0  0  0  0  0  0  0  0  0  0  0  0
   -2.5113    3.2623    0.0000 H   0  0  0  0  0  0  0  0  0  0  0  0
   -4.8095    1.3340    0.0000 H   0  0  0  0  0  0  0  0  0  0  0  0
   -1.9330   -2.2500    0.0000 H   0  0  0  0  0  0  0  0  0  0  0  0
    1.0224   -2.6130    0.0000 H   0  0  0  0  0  0  0  0  0  0  0  0
   -1.9330   -3.7500    0.0000 H   0  0  0  0  0  0  0  0  0  0  0  0
    0.9069   -3.9146    0.0000 H   0  0  0  0  0  0  0  0  0  0  0  0
   -1.7729   -5.0854    0.0000 H   0  0  0  0  0  0  0  0  0  0  0  0
    1.0670   -5.2500    0.0000 H   0  0  0  0  0  0  0  0  0  0  0  0
    1.0442   -7.0105    0.0000 H   0  0  0  0  0  0  0  0  0  0  0  0
    0.3530   -8.9095    0.0000 H   0  0  0  0  0  0  0  0  0  0  0  0
   -1.9102   -9.3086    0.0000 H   0  0  0  0  0  0  0  0  0  0  0  0
   -3.2093   -7.7605    0.0000 H   0  0  0  0  0  0  0  0  0  0  0  0
   -2.5231   -5.8076    0.0000 H   0  0  0  0  0  0  0  0  0  0  0  0
  1  2  2  3
  2  3  1  0
  3  4  1  0
  4  5  1  0
  5  6  1  0
  6  7  1  0
  7  8  1  0
  8  9  1  0
  9 10  1  0
 10 11  1  0
 10 12  1  0
  6 13  1  0
 13 14  1  0
 14 15  1  0
 15 16  1  0
 14 17  1  0
 17 18  1  0
 18 19  1  0
 19 20  1  0
 20 21  1  0
 21 22  1  0
 22 23  1  0
 12  3  1  0
 17 13  1  0
 23 21  1  0
 17  6  1  0
  1 24  1  0
  1 25  1  0
  2 26  1  0
  3 27  1  0
  4 28  1  0
  4 29  1  0
  8 30  1  0
  8 31  1  0
  9 32  1  0
  9 33  1  0
 10 34  1  0
 11 35  1  0
 11 36  1  0
 11 37  1  0
 13 38  1  0
 14 39  1  0
 15 40  1  0
 15 41  1  0
 16 42  1  0
 16 43  1  0
 16 44  1  0
 18 45  1  0
 18 46  1  0
 19 47  1  0
 19 48  1  0
 20 49  1  0
 20 50  1  0
 21 51  1  0
 22 52  1  0
 22 53  1  0
 23 54  1  0
 23 55  1  0
M  END
$$$$
