
     RDKit          2D

 22 25  0  0  0  0  0  0  0  0999 V2000
   -2.7927    1.0607    0.0000 C   0  0  0  0  0  0  0  0  0  0  0  0
   -1.7321    0.0000    0.0000 C   0  0  0  0  0  0  0  0  0  0  0  0
   -0.4330    0.7500    0.0000 C   0  0  0  0  0  0  0  0  0  0  0  0
    0.8660    0.0000    0.0000 C   0  0  0  0  0  0  0  0  0  0  0  0
   -0.4330   -0.7500    0.0000 C   0  0  0  0  0  0  0  0  0  0  0  0
   -1.1830   -2.0490    0.0000 C   0  0  0  0  0  0  0  0  0  0  0  0
    0.1160   -2.7990    0.0000 F   0  0  0  0  0  0  0  0  0  0  0  0
   -1.9330   -3.3481    0.0000 C   0  0  0  0  0  0  0  0  0  0  0  0
   -3.2321   -2.5981    0.0000 C   0  0  0  0  0  0  0  0  0  0  0  0
   -4.5311   -1.8481    0.0000 O   0  0  0  0  0  0  0  0  0  0  0  0
   -2.4821   -1.2990    0.0000 C   0  0  0  0  0  0  0  0  0  0  0  0
   -3.8534    2.1213    0.0000 H   0  0  0  0  0  0  0  0  0  0  0  0
   -3.8565    0.2295    0.0000 H   0  0  0  0  0  0  0  0  0  0  0  0
   -1.7321    2.1213    0.0000 H   0  0  0  0  0  0  0  0  0  0  0  0
   -0.4330    2.2500    0.0000 H   0  0  0  0  0  0  0  0  0  0  0  0
    1.8302    1.1491    0.0000 H   0  0  0  0  0  0  0  0  0  0  0  0
    1.8302   -1.1491    0.0000 H   0  0  0  0  0  0  0  0  0  0  0  0
   -2.6830   -4.6471    0.0000 H   0  0  0  0  0  0  0  0  0  0  0  0
   -0.6340   -4.0981    0.0000 H   0  0  0  0  0  0  0  0  0  0  0  0
   -3.9821   -3.8971    0.0000 H   0  0  0  0  0  0  0  0  0  0  0  0
   -5.8301   -2.5981    0.0000 H   0  0  0  0  0  0  0  0  0  0  0  0
   -3.7247   -0.7716    0.0000 H   0  0  0  0  0  0  0  0  0  0  0  0
  2  1  1  6
  2  3  1  0
  3  4  1  0
  5  4  1  1
  5  6  1  0
  6  7  1  6
  6  8  1  0
  8  9  1  0
  9 10  1  0
  9 11  1  0
  5  2  1  0
 11  6  1  0
 11  2  1  0
  5  3  1  0
  1 12  1  0
  1 13  1  0
  1 14  1  0
  3 15  1  1
  4 16  1  0
  4 17  1  0
  8 18  1  0
  8 19  1  0
  9 20  1  6
 10 21  1  0
 11 22  1  6
M  END
$$$$
