
     RDKit          2D

110116  0  0  0  0  0  0  0  0999 V2000
  -17.8004    0.8408    0.0000 C   0  0  0  0  0  0  0  0  0  0  0  0
  -16.6741   -0.1498    0.0000 C   0  0  0  0  0  0  0  0  0  0  0  0
  -15.2530    0.3303    0.0000 C   0  0  0  0  0  0  0  0  0  0  0  0
  -13.8319    0.8104    0.0000 C   0  0  0  0  0  0  0  0  0  0  0  0
  -12.4108    1.2905    0.0000 C   0  0  0  0  0  0  0  0  0  0  0  0
  -11.2396    2.2277    0.0000 C   0  0  0  0  0  0  0  0  0  0  0  0
   -9.8424    1.6820    0.0000 C   0  0  0  0  0  0  0  0  0  0  0  0
   -9.6164    0.1991    0.0000 C   0  0  0  0  0  0  0  0  0  0  0  0
   -8.1953    0.6792    0.0000 C   0  0  0  0  0  0  0  0  0  0  0  0
   -6.7742    1.1593    0.0000 C   0  0  0  0  0  0  0  0  0  0  0  0
   -5.3531    1.6394    0.0000 C   0  0  0  0  0  0  0  0  0  0  0  0
   -7.2543    2.5804    0.0000 C   0  0  0  0  0  0  0  0  0  0  0  0
   -7.7152   -0.7419    0.0000 N   0  0  0  0  0  0  0  0  0  0  0  0
   -6.2833   -1.1888    0.0000 C   0  0  0  0  0  0  0  0  0  0  0  0
   -5.9885    0.2819    0.0000 C   0  0  0  0  0  0  0  0  0  0  0  0
   -5.6938    1.7527    0.0000 C   0  0  0  0  0  0  0  0  0  0  0  0
   -7.4593    0.5767    0.0000 C   0  0  0  0  0  0  0  0  0  0  0  0
   -8.9300    0.8715    0.0000 C   0  0  0  0  0  0  0  0  0  0  0  0
   -9.2248   -0.5993    0.0000 C   0  0  0  0  0  0  0  0  0  0  0  0
  -10.4008    1.1663    0.0000 C   0  0  0  0  0  0  0  0  0  0  0  0
  -10.8809    2.5874    0.0000 C   0  0  0  0  0  0  0  0  0  0  0  0
   -6.2659   -2.6887    0.0000 C   0  0  0  0  0  0  0  0  0  0  0  0
   -7.6870   -3.1688    0.0000 C   0  0  0  0  0  0  0  0  0  0  0  0
   -9.1768   -3.3429    0.0000 N   0  0  0  0  0  0  0  0  0  0  0  0
   -8.5827   -1.9656    0.0000 C   0  0  0  0  0  0  0  0  0  0  0  0
   -7.0928   -1.7915    0.0000 N   0  0  0  0  0  0  0  0  0  0  0  0
   -5.8897   -0.8957    0.0000 C   0  0  0  0  0  0  0  0  0  0  0  0
   -4.6865    0.0000    0.0000 C   0  0  0  0  0  0  0  0  0  0  0  0
   -4.1734    1.4095    0.0000 C   0  0  0  0  0  0  0  0  0  0  0  0
   -2.8744    2.1595    0.0000 C   0  0  0  0  0  0  0  0  0  0  0  0
   -1.3972    1.8991    0.0000 C   0  0  0  0  0  0  0  0  0  0  0  0
   -0.6023    3.1711    0.0000 C   0  0  0  0  0  0  0  0  0  0  0  0
    0.8531    2.8083    0.0000 C   0  0  0  0  0  0  0  0  0  0  0  0
    0.9578    1.3119    0.0000 C   0  0  0  0  0  0  0  0  0  0  0  0
   -0.4330    0.7500    0.0000 C   0  0  0  0  0  0  0  0  0  0  0  0
    0.8660    0.0000    0.0000 C   0  0  0  0  0  0  0  0  0  0  0  0
   -0.4330   -0.7500    0.0000 C   0  0  0  0  0  0  0  0  0  0  0  0
   -1.3972   -1.8991    0.0000 C   0  0  0  0  0  0  0  0  0  0  0  0
   -2.8744   -2.1595    0.0000 C   0  0  0  0  0  0  0  0  0  0  0  0
   -3.1349   -3.6368    0.0000 C   0  0  0  0  0  0  0  0  0  0  0  0
   -4.1734   -1.4095    0.0000 C   0  0  0  0  0  0  0  0  0  0  0  0
  -10.7876   -0.7381    0.0000 C   0  0  0  0  0  0  0  0  0  0  0  0
   -9.6613   -1.7288    0.0000 C   0  0  0  0  0  0  0  0  0  0  0  0
   -8.5349   -2.7194    0.0000 O   0  0  0  0  0  0  0  0  0  0  0  0
  -12.1848   -0.1924    0.0000 S   0  0  0  0  0  0  0  0  0  0  0  0
  -19.2215    0.3608    0.0000 H   0  0  0  0  0  0  0  0  0  0  0  0
  -17.5057    2.3116    0.0000 H   0  0  0  0  0  0  0  0  0  0  0  0
  -16.9689   -1.6206    0.0000 H   0  0  0  0  0  0  0  0  0  0  0  0
  -14.7729   -1.0908    0.0000 H   0  0  0  0  0  0  0  0  0  0  0  0
  -15.7331    1.7514    0.0000 H   0  0  0  0  0  0  0  0  0  0  0  0
  -13.3518   -0.6107    0.0000 H   0  0  0  0  0  0  0  0  0  0  0  0
  -14.3120    2.2315    0.0000 H   0  0  0  0  0  0  0  0  0  0  0  0
  -13.2855    2.5091    0.0000 H   0  0  0  0  0  0  0  0  0  0  0  0
  -12.4783    3.0736    0.0000 H   0  0  0  0  0  0  0  0  0  0  0  0
  -10.6216    3.5944    0.0000 H   0  0  0  0  0  0  0  0  0  0  0  0
   -9.3706    3.1058    0.0000 H   0  0  0  0  0  0  0  0  0  0  0  0
   -8.3789    2.0110    0.0000 H   0  0  0  0  0  0  0  0  0  0  0  0
   -9.2367   -1.2521    0.0000 H   0  0  0  0  0  0  0  0  0  0  0  0
   -8.6754    2.1003    0.0000 H   0  0  0  0  0  0  0  0  0  0  0  0
   -5.8166    0.0047    0.0000 H   0  0  0  0  0  0  0  0  0  0  0  0
   -4.0011    2.2891    0.0000 H   0  0  0  0  0  0  0  0  0  0  0  0
   -5.4751    3.1344    0.0000 H   0  0  0  0  0  0  0  0  0  0  0  0
   -4.3955    0.4848    0.0000 H   0  0  0  0  0  0  0  0  0  0  0  0
   -7.7344    4.0015    0.0000 H   0  0  0  0  0  0  0  0  0  0  0  0
   -5.9916    3.3901    0.0000 H   0  0  0  0  0  0  0  0  0  0  0  0
   -8.7493    2.4584    0.0000 H   0  0  0  0  0  0  0  0  0  0  0  0
   -5.0302   -2.0132    0.0000 H   0  0  0  0  0  0  0  0  0  0  0  0
   -4.4928    0.1686    0.0000 H   0  0  0  0  0  0  0  0  0  0  0  0
   -5.3990    3.2234    0.0000 H   0  0  0  0  0  0  0  0  0  0  0  0
   -6.9611    2.5551    0.0000 H   0  0  0  0  0  0  0  0  0  0  0  0
   -4.2151    2.0047    0.0000 H   0  0  0  0  0  0  0  0  0  0  0  0
   -7.7113    2.0554    0.0000 H   0  0  0  0  0  0  0  0  0  0  0  0
   -7.9312   -0.8471    0.0000 H   0  0  0  0  0  0  0  0  0  0  0  0
   -8.4997   -0.5654    0.0000 H   0  0  0  0  0  0  0  0  0  0  0  0
   -9.1550   -2.0976    0.0000 H   0  0  0  0  0  0  0  0  0  0  0  0
  -10.7035   -0.8513    0.0000 H   0  0  0  0  0  0  0  0  0  0  0  0
   -7.9575   -1.4016    0.0000 H   0  0  0  0  0  0  0  0  0  0  0  0
  -11.7294    0.4699    0.0000 H   0  0  0  0  0  0  0  0  0  0  0  0
  -12.2366    3.2293    0.0000 H   0  0  0  0  0  0  0  0  0  0  0  0
   -9.8902    3.7137    0.0000 H   0  0  0  0  0  0  0  0  0  0  0  0
   -4.7781   -2.8802    0.0000 H   0  0  0  0  0  0  0  0  0  0  0  0
   -5.9370   -4.1522    0.0000 H   0  0  0  0  0  0  0  0  0  0  0  0
  -10.3800   -4.2387    0.0000 H   0  0  0  0  0  0  0  0  0  0  0  0
   -6.9254    0.1893    0.0000 H   0  0  0  0  0  0  0  0  0  0  0  0
   -4.9939   -2.0989    0.0000 H   0  0  0  0  0  0  0  0  0  0  0  0
   -5.7715    1.0357    0.0000 H   0  0  0  0  0  0  0  0  0  0  0  0
   -5.3499    2.3401    0.0000 H   0  0  0  0  0  0  0  0  0  0  0  0
   -4.6947    2.8161    0.0000 H   0  0  0  0  0  0  0  0  0  0  0  0
   -3.8319    3.3142    0.0000 H   0  0  0  0  0  0  0  0  0  0  0  0
   -2.3696    3.5721    0.0000 H   0  0  0  0  0  0  0  0  0  0  0  0
   -2.4392    0.8201    0.0000 H   0  0  0  0  0  0  0  0  0  0  0  0
   -1.8603    3.9881    0.0000 H   0  0  0  0  0  0  0  0  0  0  0  0
   -0.0893    4.5807    0.0000 H   0  0  0  0  0  0  0  0  0  0  0  0
    1.0619    4.2937    0.0000 H   0  0  0  0  0  0  0  0  0  0  0  0
    2.3522    2.7559    0.0000 H   0  0  0  0  0  0  0  0  0  0  0  0
    2.3922    1.7505    0.0000 H   0  0  0  0  0  0  0  0  0  0  0  0
    1.7078    0.0129    0.0000 H   0  0  0  0  0  0  0  0  0  0  0  0
    1.9631    1.0230    0.0000 H   0  0  0  0  0  0  0  0  0  0  0  0
    1.8302   -1.1491    0.0000 H   0  0  0  0  0  0  0  0  0  0  0  0
    0.6640   -1.7730    0.0000 H   0  0  0  0  0  0  0  0  0  0  0  0
   -0.1026   -2.6566    0.0000 H   0  0  0  0  0  0  0  0  0  0  0  0
   -1.5713   -3.3889    0.0000 H   0  0  0  0  0  0  0  0  0  0  0  0
   -4.5444   -4.1498    0.0000 H   0  0  0  0  0  0  0  0  0  0  0  0
   -1.9858   -4.6009    0.0000 H   0  0  0  0  0  0  0  0  0  0  0  0
   -4.1559   -2.9094    0.0000 H   0  0  0  0  0  0  0  0  0  0  0  0
   -5.2277   -2.4765    0.0000 H   0  0  0  0  0  0  0  0  0  0  0  0
  -11.5676   -2.0193    0.0000 H   0  0  0  0  0  0  0  0  0  0  0  0
  -10.6519   -2.8551    0.0000 H   0  0  0  0  0  0  0  0  0  0  0  0
   -8.2577   -1.1995    0.0000 H   0  0  0  0  0  0  0  0  0  0  0  0
   -8.8297   -4.1902    0.0000 H   0  0  0  0  0  0  0  0  0  0  0  0
  1  2  2  3
  2  3  1  0
  3  4  1  0
  4  5  1  0
  5  6  1  0
  6  7  1  0
  7  8  1  0
  8  9  1  0
  9 10  1  0
 10 11  1  0
 10 12  1  0
  9 13  1  0
 13 14  1  0
 14 15  1  0
 15 16  1  0
 15 17  1  0
 17 18  1  0
 18 19  1  0
 18 20  1  0
 20 21  2  3
 14 22  1  0
 22 23  1  0
 23 24  1  0
 24 25  1  0
 25 26  1  0
 26 27  1  0
 27 28  1  0
 28 29  1  0
 29 30  1  0
 30 31  1  0
 31 32  1  0
 32 33  1  0
 33 34  1  0
 34 35  1  0
 35 36  1  0
 36 37  1  0
 37 38  1  0
 38 39  1  0
 39 40  2  3
 39 41  1  0
  8 42  1  0
 42 43  1  0
 43 44  1  0
 42 45  1  0
 45  5  1  0
 25 13  1  0
 41 28  1  0
 25 23  1  0
 35 31  1  0
 26 23  1  0
 37 35  1  0
  1 46  1  0
  1 47  1  0
  2 48  1  0
  3 49  1  0
  3 50  1  0
  4 51  1  0
  4 52  1  0
  5 53  1  0
  6 54  1  0
  6 55  1  0
  7 56  1  0
  7 57  1  0
  8 58  1  0
  9 59  1  0
 10 60  1  0
 11 61  1  0
 11 62  1  0
 11 63  1  0
 12 64  1  0
 12 65  1  0
 12 66  1  0
 14 67  1  0
 15 68  1  0
 16 69  1  0
 16 70  1  0
 16 71  1  0
 17 72  1  0
 17 73  1  0
 18 74  1  0
 19 75  1  0
 19 76  1  0
 19 77  1  0
 20 78  1  0
 21 79  1  0
 21 80  1  0
 22 81  1  0
 22 82  1  0
 24 83  1  0
 27 84  1  0
 27 85  1  0
 28 86  1  0
 29 87  1  0
 29 88  1  0
 30 89  1  0
 30 90  1  0
 31 91  1  0
 32 92  1  0
 32 93  1  0
 33 94  1  0
 33 95  1  0
 34 96  1  0
 34 97  1  0
 36 98  1  0
 36 99  1  0
 37100  1  0
 38101  1  0
 38102  1  0
 40103  1  0
 40104  1  0
 41105  1  0
 41106  1  0
 42107  1  0
 43108  1  0
 43109  1  0
 44110  1  0
M  END
$$$$
