
     RDKit          2D

 96105  0  0  0  0  0  0  0  0999 V2000
    4.7621  -15.4131    0.0000 C   0  0  0  0  0  0  0  0  0  0  0  0
    3.3476  -14.9141    0.0000 C   0  0  0  0  0  0  0  0  0  0  0  0
    3.1833  -13.4232    0.0000 C   0  0  0  0  0  0  0  0  0  0  0  0
    1.9152  -12.6219    0.0000 C   0  0  0  0  0  0  0  0  0  0  0  0
    1.1204  -11.3499    0.0000 C   0  0  0  0  0  0  0  0  0  0  0  0
    2.5876  -11.0380    0.0000 C   0  0  0  0  0  0  0  0  0  0  0  0
    3.7023  -10.0343    0.0000 C   0  0  0  0  0  0  0  0  0  0  0  0
    4.1658   -8.6077    0.0000 Al  0  0  0  0  0  3  0  0  0  0  0  0
    3.8540   -7.1405    0.0000 O   0  0  0  0  0  0  0  0  0  0  0  0
    2.8503   -6.0258    0.0000 C   0  0  0  0  0  0  0  0  0  0  0  0
    1.4237   -5.5623    0.0000 C   0  0  0  0  0  0  0  0  0  0  0  0
   -0.0435   -5.8741    0.0000 C   0  0  0  0  0  0  0  0  0  0  0  0
    0.6289   -7.2591    0.0000 O   0  0  0  0  0  0  0  0  0  0  0  0
    1.9380   -6.5268    0.0000 O   0  0  0  0  0  0  0  0  0  0  0  0
    2.3458   -5.0833    0.0000 C   0  0  0  0  0  0  0  0  0  0  0  0
    1.6135   -3.7742    0.0000 C   0  0  0  0  0  0  0  0  0  0  0  0
    0.7318   -4.9877    0.0000 C   0  0  0  0  0  0  0  0  0  0  0  0
   -0.6947   -5.4512    0.0000 C   0  0  0  0  0  0  0  0  0  0  0  0
   -2.1213   -4.9877    0.0000 N   0  0  0  0  0  0  0  0  0  0  0  0
   -3.0030   -3.7742    0.0000 C   0  0  0  0  0  0  0  0  0  0  0  0
   -4.4296   -4.2377    0.0000 C   0  0  0  0  0  0  0  0  0  0  0  0
   -5.3113   -3.0242    0.0000 C   0  0  0  0  0  0  0  0  0  0  0  0
   -4.4296   -1.8107    0.0000 O   0  0  0  0  0  0  0  0  0  0  0  0
   -3.0030   -2.2742    0.0000 C   0  0  0  0  0  0  0  0  0  0  0  0
   -2.1213   -1.0607    0.0000 N   0  0  0  0  0  0  0  0  0  0  0  0
   -1.0607   -2.1213    0.0000 N   0  0  0  0  0  0  0  0  0  0  0  0
   -0.0000   -1.0607    0.0000 C   0  0  0  0  0  0  0  0  0  0  0  0
    1.0607    0.0000    0.0000 C   0  0  0  0  0  0  0  0  0  0  0  0
    0.0000    1.0607    0.0000 O   0  0  0  0  0  0  0  0  0  0  0  0
   -1.0607    0.0000    0.0000 C   0  0  0  0  0  0  0  0  0  0  0  0
    1.6135   -2.2742    0.0000 C   0  0  0  0  0  0  0  0  0  0  0  0
   -4.2137   -6.8964    0.0000 C   0  0  0  0  0  0  0  0  0  0  0  0
   -3.0484   -7.8409    0.0000 C   0  0  0  0  0  0  0  0  0  0  0  0
   -2.5848   -6.4143    0.0000 C   0  0  0  0  0  0  0  0  0  0  0  0
   -1.1583   -6.8778    0.0000 C   0  0  0  0  0  0  0  0  0  0  0  0
   -1.6218   -8.3044    0.0000 C   0  0  0  0  0  0  0  0  0  0  0  0
   -1.3099   -9.7716    0.0000 C   0  0  0  0  0  0  0  0  0  0  0  0
   -2.7953   -9.5629    0.0000 O   0  0  0  0  0  0  0  0  0  0  0  0
   -2.0141  -11.0960    0.0000 C   0  0  0  0  0  0  0  0  0  0  0  0
   -2.7183  -12.4205    0.0000 C   0  0  0  0  0  0  0  0  0  0  0  0
   -0.3062  -10.8863    0.0000 C   0  0  0  0  0  0  0  0  0  0  0  0
    0.4982  -13.1138    0.0000 C   0  0  0  0  0  0  0  0  0  0  0  0
   -0.0008  -14.5284    0.0000 C   0  0  0  0  0  0  0  0  0  0  0  0
    0.7941  -15.8005    0.0000 N   0  0  0  0  0  0  0  0  0  0  0  0
    2.2843  -15.9721    0.0000 O   0  0  0  0  0  0  0  0  0  0  0  0
    5.0373  -16.8876    0.0000 H   0  0  0  0  0  0  0  0  0  0  0  0
    5.9015  -14.4375    0.0000 H   0  0  0  0  0  0  0  0  0  0  0  0
    3.9713  -12.4983    0.0000 H   0  0  0  0  0  0  0  0  0  0  0  0
    4.6735  -13.5948    0.0000 H   0  0  0  0  0  0  0  0  0  0  0  0
    2.6923  -12.0180    0.0000 H   0  0  0  0  0  0  0  0  0  0  0  0
    0.0597  -12.4105    0.0000 H   0  0  0  0  0  0  0  0  0  0  0  0
    3.2914  -11.4122    0.0000 H   0  0  0  0  0  0  0  0  0  0  0  0
    2.7445  -12.5298    0.0000 H   0  0  0  0  0  0  0  0  0  0  0  0
    5.2014   -9.9820    0.0000 H   0  0  0  0  0  0  0  0  0  0  0  0
    4.5840  -11.2478    0.0000 H   0  0  0  0  0  0  0  0  0  0  0  0
    5.6638   -8.6862    0.0000 H   0  0  0  0  0  0  0  0  0  0  0  0
    3.6674   -4.7679    0.0000 H   0  0  0  0  0  0  0  0  0  0  0  0
    4.2992   -5.6376    0.0000 H   0  0  0  0  0  0  0  0  0  0  0  0
    0.9602   -4.1356    0.0000 H   0  0  0  0  0  0  0  0  0  0  0  0
    2.0337   -4.1919    0.0000 H   0  0  0  0  0  0  0  0  0  0  0  0
   -0.7245   -4.5376    0.0000 H   0  0  0  0  0  0  0  0  0  0  0  0
    3.4208   -4.0371    0.0000 H   0  0  0  0  0  0  0  0  0  0  0  0
    3.7185   -5.6880    0.0000 H   0  0  0  0  0  0  0  0  0  0  0  0
    3.1115   -3.6956    0.0000 H   0  0  0  0  0  0  0  0  0  0  0  0
    1.0948   -6.4431    0.0000 H   0  0  0  0  0  0  0  0  0  0  0  0
    2.1584   -5.4512    0.0000 H   0  0  0  0  0  0  0  0  0  0  0  0
   -2.0755   -6.0374    0.0000 H   0  0  0  0  0  0  0  0  0  0  0  0
   -3.4665   -5.2008    0.0000 H   0  0  0  0  0  0  0  0  0  0  0  0
   -4.8931   -5.6643    0.0000 H   0  0  0  0  0  0  0  0  0  0  0  0
   -6.4260   -4.0279    0.0000 H   0  0  0  0  0  0  0  0  0  0  0  0
   -6.4260   -2.0205    0.0000 H   0  0  0  0  0  0  0  0  0  0  0  0
   -3.4665   -0.8476    0.0000 H   0  0  0  0  0  0  0  0  0  0  0  0
   -1.0607   -3.6213    0.0000 H   0  0  0  0  0  0  0  0  0  0  0  0
    2.1213    1.0607    0.0000 H   0  0  0  0  0  0  0  0  0  0  0  0
    2.2427   -0.9235    0.0000 H   0  0  0  0  0  0  0  0  0  0  0  0
   -2.1213    1.0607    0.0000 H   0  0  0  0  0  0  0  0  0  0  0  0
    3.0401   -2.7377    0.0000 H   0  0  0  0  0  0  0  0  0  0  0  0
    2.6366   -1.1772    0.0000 H   0  0  0  0  0  0  0  0  0  0  0  0
   -5.0959   -8.1095    0.0000 H   0  0  0  0  0  0  0  0  0  0  0  0
   -5.6317   -6.4074    0.0000 H   0  0  0  0  0  0  0  0  0  0  0  0
   -4.2919   -8.6797    0.0000 H   0  0  0  0  0  0  0  0  0  0  0  0
   -4.0114   -5.9508    0.0000 H   0  0  0  0  0  0  0  0  0  0  0  0
   -2.9462   -9.0085    0.0000 H   0  0  0  0  0  0  0  0  0  0  0  0
   -3.8560  -10.6235    0.0000 H   0  0  0  0  0  0  0  0  0  0  0  0
   -3.4145  -10.5585    0.0000 H   0  0  0  0  0  0  0  0  0  0  0  0
   -0.7854  -11.9564    0.0000 H   0  0  0  0  0  0  0  0  0  0  0  0
   -3.4225  -13.7449    0.0000 H   0  0  0  0  0  0  0  0  0  0  0  0
   -4.0428  -11.7163    0.0000 H   0  0  0  0  0  0  0  0  0  0  0  0
   -1.6037  -13.4242    0.0000 H   0  0  0  0  0  0  0  0  0  0  0  0
   -0.2539  -12.3854    0.0000 H   0  0  0  0  0  0  0  0  0  0  0  0
   -1.5197  -11.7681    0.0000 H   0  0  0  0  0  0  0  0  0  0  0  0
   -0.9920  -12.9422    0.0000 H   0  0  0  0  0  0  0  0  0  0  0  0
    0.3340  -11.6228    0.0000 H   0  0  0  0  0  0  0  0  0  0  0  0
   -1.0641  -15.5864    0.0000 H   0  0  0  0  0  0  0  0  0  0  0  0
   -1.4250  -14.0579    0.0000 H   0  0  0  0  0  0  0  0  0  0  0  0
   -0.0071  -17.0686    0.0000 H   0  0  0  0  0  0  0  0  0  0  0  0
  1  2  2  3
  2  3  1  0
  3  4  1  0
  4  5  1  0
  5  6  1  0
  6  7  1  0
  7  8  1  0
  8  9  1  0
  9 10  1  0
 10 11  1  0
 11 12  1  0
 12 13  1  0
 13 14  1  0
 14 15  1  0
 15 16  1  0
 16 17  1  0
 17 18  1  0
 18 19  1  0
 19 20  1  0
 20 21  1  0
 21 22  1  0
 22 23  1  0
 23 24  1  0
 24 25  1  0
 25 26  1  0
 26 27  1  0
 27 28  1  0
 28 29  1  0
 29 30  1  0
 27 31  1  0
 21 32  1  0
 32 33  1  0
 33 34  1  0
 34 35  1  0
 35 36  1  0
 36 37  1  0
 37 38  1  0
 37 39  1  0
 39 40  1  0
 37 41  1  0
  4 42  1  0
 42 43  1  0
 43 44  1  0
 44 45  1  0
 45  2  1  0
 41  5  1  0
 35 12  1  0
 31 16  1  0
 36 33  1  0
 35 18  1  0
 34 19  1  0
 24 20  1  0
 30 25  1  0
 30 27  1  0
  1 46  1  0
  1 47  1  0
  3 48  1  0
  3 49  1  0
  4 50  1  0
  5 51  1  0
  6 52  1  0
  6 53  1  0
  7 54  1  0
  7 55  1  0
  8 56  1  0
 10 57  1  0
 10 58  1  0
 11 59  1  0
 11 60  1  0
 12 61  1  0
 15 62  1  0
 15 63  1  0
 16 64  1  0
 17 65  1  0
 17 66  1  0
 18 67  1  0
 20 68  1  0
 21 69  1  0
 22 70  1  0
 22 71  1  0
 24 72  1  0
 26 73  1  0
 28 74  1  0
 28 75  1  0
 30 76  1  0
 31 77  1  0
 31 78  1  0
 32 79  1  0
 32 80  1  0
 33 81  1  0
 34 82  1  0
 36 83  1  0
 38 84  1  0
 39 85  1  0
 39 86  1  0
 40 87  1  0
 40 88  1  0
 40 89  1  0
 41 90  1  0
 41 91  1  0
 42 92  1  0
 42 93  1  0
 43 94  1  0
 43 95  1  0
 44 96  1  0
M  END
$$$$
