
     RDKit          2D

108116  0  0  0  0  0  0  0  0999 V2000
    6.8883  -13.1279    0.0000 C   0  0  0  0  0  0  0  0  0  0  0  0
    5.4394  -13.5161    0.0000 C   0  0  0  0  0  0  0  0  0  0  0  0
    3.9906  -13.9044    0.0000 C   0  0  0  0  0  0  0  0  0  0  0  0
    2.5417  -14.2926    0.0000 C   0  0  0  0  0  0  0  0  0  0  0  0
    2.1534  -12.8437    0.0000 C   0  0  0  0  0  0  0  0  0  0  0  0
    3.6023  -12.4555    0.0000 C   0  0  0  0  0  0  0  0  0  0  0  0
    2.5417  -11.3948    0.0000 C   0  0  0  0  0  0  0  0  0  0  0  0
    3.4020  -10.1661    0.0000 C   0  0  0  0  0  0  0  0  0  0  0  0
    4.2624   -8.9373    0.0000 C   0  0  0  0  0  0  0  0  0  0  0  0
    5.1228   -7.7086    0.0000 O   0  0  0  0  0  0  0  0  0  0  0  0
    1.1822  -10.7609    0.0000 C   0  0  0  0  0  0  0  0  0  0  0  0
   -0.1773  -10.1269    0.0000 C   0  0  0  0  0  0  0  0  0  0  0  0
   -1.0376  -11.3557    0.0000 C   0  0  0  0  0  0  0  0  0  0  0  0
   -1.2379   -9.0663    0.0000 C   0  0  0  0  0  0  0  0  0  0  0  0
    0.2110   -8.6781    0.0000 C   0  0  0  0  0  0  0  0  0  0  0  0
    0.0802   -7.1838    0.0000 C   0  0  0  0  0  0  0  0  0  0  0  0
   -0.0505   -5.6895    0.0000 C   0  0  0  0  0  0  0  0  0  0  0  0
   -0.1812   -4.1952    0.0000 C   0  0  0  0  0  0  0  0  0  0  0  0
    0.2070   -2.7463    0.0000 C   0  0  0  0  0  0  0  0  0  0  0  0
    1.2677   -3.8070    0.0000 N   0  0  0  0  0  0  0  0  0  0  0  0
   -1.5448   -5.8202    0.0000 C   0  0  0  0  0  0  0  0  0  0  0  0
   -1.9330   -4.3713    0.0000 C   0  0  0  0  0  0  0  0  0  0  0  0
   -3.2321   -5.1213    0.0000 C   0  0  0  0  0  0  0  0  0  0  0  0
   -3.9821   -6.4204    0.0000 C   0  0  0  0  0  0  0  0  0  0  0  0
   -4.6809   -4.7331    0.0000 C   0  0  0  0  0  0  0  0  0  0  0  0
   -5.4309   -3.4341    0.0000 C   0  0  0  0  0  0  0  0  0  0  0  0
   -5.0427   -1.9852    0.0000 C   0  0  0  0  0  0  0  0  0  0  0  0
   -3.7437   -1.2352    0.0000 C   0  0  0  0  0  0  0  0  0  0  0  0
   -2.2948   -1.6234    0.0000 C   0  0  0  0  0  0  0  0  0  0  0  0
   -1.5448   -2.9224    0.0000 C   0  0  0  0  0  0  0  0  0  0  0  0
   -0.2457   -3.6724    0.0000 C   0  0  0  0  0  0  0  0  0  0  0  0
    1.0533   -4.4224    0.0000 C   0  0  0  0  0  0  0  0  0  0  0  0
   -4.4937    0.0639    0.0000 C   0  0  0  0  0  0  0  0  0  0  0  0
   -5.7927   -0.6861    0.0000 C   0  0  0  0  0  0  0  0  0  0  0  0
   -6.5427   -1.9852    0.0000 C   0  0  0  0  0  0  0  0  0  0  0  0
   -7.9522   -1.4721    0.0000 C   0  0  0  0  0  0  0  0  0  0  0  0
   -9.1013   -2.4363    0.0000 N   0  0  0  0  0  0  0  0  0  0  0  0
   -6.8032   -3.4624    0.0000 C   0  0  0  0  0  0  0  0  0  0  0  0
   -7.0637   -4.9396    0.0000 C   0  0  0  0  0  0  0  0  0  0  0  0
   -1.6755   -7.3145    0.0000 C   0  0  0  0  0  0  0  0  0  0  0  0
   -2.9042   -6.4541    0.0000 C   0  0  0  0  0  0  0  0  0  0  0  0
   -3.7646   -5.2254    0.0000 O   0  0  0  0  0  0  0  0  0  0  0  0
   -3.9649   -7.5148    0.0000 C   0  0  0  0  0  0  0  0  0  0  0  0
   -5.0256   -8.5755    0.0000 C   0  0  0  0  0  0  0  0  0  0  0  0
    8.3372  -12.7397    0.0000 H   0  0  0  0  0  0  0  0  0  0  0  0
    7.2766  -14.5768    0.0000 H   0  0  0  0  0  0  0  0  0  0  0  0
    6.5001  -11.6790    0.0000 H   0  0  0  0  0  0  0  0  0  0  0  0
    5.2307  -12.0307    0.0000 H   0  0  0  0  0  0  0  0  0  0  0  0
    5.8277  -14.9650    0.0000 H   0  0  0  0  0  0  0  0  0  0  0  0
    4.3788  -15.3532    0.0000 H   0  0  0  0  0  0  0  0  0  0  0  0
    2.9299  -15.7415    0.0000 H   0  0  0  0  0  0  0  0  0  0  0  0
    1.0928  -14.6808    0.0000 H   0  0  0  0  0  0  0  0  0  0  0  0
    0.6980  -13.2067    0.0000 H   0  0  0  0  0  0  0  0  0  0  0  0
    4.9014  -11.7055    0.0000 H   0  0  0  0  0  0  0  0  0  0  0  0
    4.7265  -10.8702    0.0000 H   0  0  0  0  0  0  0  0  0  0  0  0
    2.4180   -9.0340    0.0000 H   0  0  0  0  0  0  0  0  0  0  0  0
    5.4911   -9.7977    0.0000 H   0  0  0  0  0  0  0  0  0  0  0  0
    3.0337   -8.0770    0.0000 H   0  0  0  0  0  0  0  0  0  0  0  0
    6.6171   -7.8394    0.0000 H   0  0  0  0  0  0  0  0  0  0  0  0
    1.8161   -9.4014    0.0000 H   0  0  0  0  0  0  0  0  0  0  0  0
    0.5483  -12.1203    0.0000 H   0  0  0  0  0  0  0  0  0  0  0  0
   -1.8980  -12.5844    0.0000 H   0  0  0  0  0  0  0  0  0  0  0  0
   -0.0536  -12.4878    0.0000 H   0  0  0  0  0  0  0  0  0  0  0  0
   -2.3621  -10.6515    0.0000 H   0  0  0  0  0  0  0  0  0  0  0  0
   -2.5624   -9.7705    0.0000 H   0  0  0  0  0  0  0  0  0  0  0  0
   -2.3170   -8.0244    0.0000 H   0  0  0  0  0  0  0  0  0  0  0  0
    1.6925   -8.4433    0.0000 H   0  0  0  0  0  0  0  0  0  0  0  0
    1.5745   -7.0530    0.0000 H   0  0  0  0  0  0  0  0  0  0  0  0
   -1.3870   -7.4957    0.0000 H   0  0  0  0  0  0  0  0  0  0  0  0
    1.4438   -5.5587    0.0000 H   0  0  0  0  0  0  0  0  0  0  0  0
   -1.5995   -3.7068    0.0000 H   0  0  0  0  0  0  0  0  0  0  0  0
   -1.0650   -1.9514    0.0000 H   0  0  0  0  0  0  0  0  0  0  0  0
    1.0674   -1.5176    0.0000 H   0  0  0  0  0  0  0  0  0  0  0  0
    2.7166   -4.1952    0.0000 H   0  0  0  0  0  0  0  0  0  0  0  0
   -0.4442   -4.5542    0.0000 H   0  0  0  0  0  0  0  0  0  0  0  0
   -2.7936   -6.5558    0.0000 H   0  0  0  0  0  0  0  0  0  0  0  0
   -5.0241   -7.4993    0.0000 H   0  0  0  0  0  0  0  0  0  0  0  0
   -2.9031   -7.4624    0.0000 H   0  0  0  0  0  0  0  0  0  0  0  0
   -5.2811   -5.6704    0.0000 H   0  0  0  0  0  0  0  0  0  0  0  0
   -6.0717   -5.2950    0.0000 H   0  0  0  0  0  0  0  0  0  0  0  0
   -5.3853   -6.0574    0.0000 H   0  0  0  0  0  0  0  0  0  0  0  0
   -6.9300   -3.3819    0.0000 H   0  0  0  0  0  0  0  0  0  0  0  0
   -6.3544   -4.6161    0.0000 H   0  0  0  0  0  0  0  0  0  0  0  0
   -2.8305   -0.0451    0.0000 H   0  0  0  0  0  0  0  0  0  0  0  0
   -1.3816   -0.4334    0.0000 H   0  0  0  0  0  0  0  0  0  0  0  0
   -0.6213   -1.7404    0.0000 H   0  0  0  0  0  0  0  0  0  0  0  0
    0.1676   -2.2305    0.0000 H   0  0  0  0  0  0  0  0  0  0  0  0
   -0.8318   -5.0532    0.0000 H   0  0  0  0  0  0  0  0  0  0  0  0
    2.3523   -5.1724    0.0000 H   0  0  0  0  0  0  0  0  0  0  0  0
    2.0953   -3.3435    0.0000 H   0  0  0  0  0  0  0  0  0  0  0  0
    0.6399   -5.8643    0.0000 H   0  0  0  0  0  0  0  0  0  0  0  0
   -4.1054    1.5128    0.0000 H   0  0  0  0  0  0  0  0  0  0  0  0
   -6.8534    0.3745    0.0000 H   0  0  0  0  0  0  0  0  0  0  0  0
   -8.2127    0.0051    0.0000 H   0  0  0  0  0  0  0  0  0  0  0  0
  -10.5109   -1.9233    0.0000 H   0  0  0  0  0  0  0  0  0  0  0  0
   -8.2804   -3.2019    0.0000 H   0  0  0  0  0  0  0  0  0  0  0  0
   -5.4329   -4.0726    0.0000 H   0  0  0  0  0  0  0  0  0  0  0  0
   -7.3241   -6.4168    0.0000 H   0  0  0  0  0  0  0  0  0  0  0  0
   -8.5409   -4.6791    0.0000 H   0  0  0  0  0  0  0  0  0  0  0  0
   -5.6292   -5.3782    0.0000 H   0  0  0  0  0  0  0  0  0  0  0  0
   -0.3636   -8.0418    0.0000 H   0  0  0  0  0  0  0  0  0  0  0  0
   -2.1390   -8.7411    0.0000 H   0  0  0  0  0  0  0  0  0  0  0  0
   -5.2318   -5.5373    0.0000 H   0  0  0  0  0  0  0  0  0  0  0  0
   -5.2507   -6.7423    0.0000 H   0  0  0  0  0  0  0  0  0  0  0  0
   -3.0414   -8.6968    0.0000 H   0  0  0  0  0  0  0  0  0  0  0  0
   -6.0862   -9.6361    0.0000 H   0  0  0  0  0  0  0  0  0  0  0  0
   -3.9649   -9.6361    0.0000 H   0  0  0  0  0  0  0  0  0  0  0  0
   -6.0862   -7.5148    0.0000 H   0  0  0  0  0  0  0  0  0  0  0  0
  1  2  1  0
  2  3  1  0
  3  4  1  0
  4  5  1  0
  5  6  1  0
  6  7  1  0
  7  8  1  0
  8  9  1  0
  9 10  1  0
  7 11  1  0
 11 12  1  0
 12 13  1  0
 12 14  1  0
 14 15  1  0
 15 16  1  0
 16 17  1  0
 17 18  1  0
 18 19  1  0
 19 20  1  0
 17 21  1  0
 21 22  1  0
 22 23  1  0
 23 24  1  0
 23 25  1  0
 25 26  1  0
 26 27  1  0
 27 28  1  0
 28 29  1  0
 29 30  1  0
 30 31  1  0
 31 32  1  0
 29 33  1  0
 33 34  1  0
 34 35  1  0
 35 36  1  0
 36 37  2  3
 35 38  1  0
 38 39  1  0
 21 40  1  0
 40 41  1  0
 41 42  1  0
 41 43  1  0
 43 44  1  0
  6  3  1  0
 15 12  1  0
 20 18  1  0
 41 21  1  0
  7  5  1  0
 30 22  1  0
 34 27  1  0
 35 27  1  0
 33 28  1  0
  1 45  1  0
  1 46  1  0
  1 47  1  0
  2 48  1  0
  2 49  1  0
  3 50  1  0
  4 51  1  0
  4 52  1  0
  5 53  1  0
  6 54  1  0
  8 55  1  0
  8 56  1  0
  9 57  1  0
  9 58  1  0
 10 59  1  0
 11 60  1  0
 11 61  1  0
 13 62  1  0
 13 63  1  0
 13 64  1  0
 14 65  1  0
 14 66  1  0
 15 67  1  0
 16 68  1  0
 16 69  1  0
 17 70  1  0
 18 71  1  0
 19 72  1  0
 19 73  1  0
 20 74  1  0
 22 75  1  0
 23 76  1  0
 24 77  1  0
 24 78  1  0
 24 79  1  0
 25 80  1  0
 25 81  1  0
 26 82  1  0
 26 83  1  0
 28 84  1  0
 29 85  1  0
 30 86  1  0
 31 87  1  0
 31 88  1  0
 32 89  1  0
 32 90  1  0
 32 91  1  0
 33 92  1  0
 34 93  1  0
 36 94  1  0
 37 95  1  0
 38 96  1  0
 38 97  1  0
 39 98  1  0
 39 99  1  0
 39100  1  0
 40101  1  0
 40102  1  0
 42103  1  0
 43104  1  0
 43105  1  0
 44106  1  0
 44107  1  0
 44108  1  0
M  END
$$$$
