
     RDKit          2D

115121  0  0  0  0  0  0  0  0999 V2000
   -8.7716   -7.5072    0.0000 C   0  0  0  0  0  0  0  0  0  0  0  0
   -7.3967   -6.9074    0.0000 C   0  0  0  0  0  0  0  0  0  0  0  0
   -6.0219   -6.3076    0.0000 C   0  0  0  0  0  0  0  0  0  0  0  0
   -6.6217   -4.9327    0.0000 O   0  0  0  0  0  0  0  0  0  0  0  0
   -4.6471   -5.7077    0.0000 C   0  0  0  0  0  0  0  0  0  0  0  0
   -3.2312   -6.2031    0.0000 C   0  0  0  0  0  0  0  0  0  0  0  0
   -1.7407   -6.0352    0.0000 C   0  0  0  0  0  0  0  0  0  0  0  0
   -0.4706   -5.2371    0.0000 C   0  0  0  0  0  0  0  0  0  0  0  0
    0.3275   -3.9671    0.0000 C   0  0  0  0  0  0  0  0  0  0  0  0
    1.2182   -5.1740    0.0000 C   0  0  0  0  0  0  0  0  0  0  0  0
    2.1089   -6.3808    0.0000 N   0  0  0  0  0  0  0  0  0  0  0  0
    3.4838   -6.9807    0.0000 C   0  0  0  0  0  0  0  0  0  0  0  0
    2.2769   -7.8714    0.0000 C   0  0  0  0  0  0  0  0  0  0  0  0
    2.9445   -9.2147    0.0000 C   0  0  0  0  0  0  0  0  0  0  0  0
    3.6121  -10.5579    0.0000 C   0  0  0  0  0  0  0  0  0  0  0  0
    0.8381   -8.2956    0.0000 C   0  0  0  0  0  0  0  0  0  0  0  0
   -0.6006   -8.7199    0.0000 C   0  0  0  0  0  0  0  0  0  0  0  0
    0.4954   -2.4765    0.0000 C   0  0  0  0  0  0  0  0  0  0  0  0
   -0.0000   -1.0607    0.0000 C   0  0  0  0  0  0  0  0  0  0  0  0
    1.0607    0.0000    0.0000 C   0  0  0  0  0  0  0  0  0  0  0  0
    2.1213    1.0607    0.0000 C   0  0  0  0  0  0  0  0  0  0  0  0
    0.0000    1.0607    0.0000 C   0  0  0  0  0  0  0  0  0  0  0  0
   -1.0607    0.0000    0.0000 C   0  0  0  0  0  0  0  0  0  0  0  0
   -1.0943   -1.4996    0.0000 C   0  0  0  0  0  0  0  0  0  0  0  0
    0.4006   -1.3763    0.0000 C   0  0  0  0  0  0  0  0  0  0  0  0
    1.8955   -1.2531    0.0000 C   0  0  0  0  0  0  0  0  0  0  0  0
   -2.5309   -1.9310    0.0000 C   0  0  0  0  0  0  0  0  0  0  0  0
   -3.3852   -0.6980    0.0000 C   0  0  0  0  0  0  0  0  0  0  0  0
   -4.5221   -1.6764    0.0000 C   0  0  0  0  0  0  0  0  0  0  0  0
   -5.6591   -2.6549    0.0000 C   0  0  0  0  0  0  0  0  0  0  0  0
   -2.4765    0.4954    0.0000 C   0  0  0  0  0  0  0  0  0  0  0  0
   -3.9671    0.3275    0.0000 C   0  0  0  0  0  0  0  0  0  0  0  0
   -5.2371   -0.4706    0.0000 C   0  0  0  0  0  0  0  0  0  0  0  0
   -6.0352   -1.7407    0.0000 C   0  0  0  0  0  0  0  0  0  0  0  0
   -6.2031   -3.2312    0.0000 C   0  0  0  0  0  0  0  0  0  0  0  0
   -7.5293   -2.5303    0.0000 C   0  0  0  0  0  0  0  0  0  0  0  0
   -8.8555   -1.8294    0.0000 C   0  0  0  0  0  0  0  0  0  0  0  0
   -9.7760   -3.0137    0.0000 C   0  0  0  0  0  0  0  0  0  0  0  0
  -11.1654   -3.5791    0.0000 C   0  0  0  0  0  0  0  0  0  0  0  0
  -12.2999   -2.5979    0.0000 C   0  0  0  0  0  0  0  0  0  0  0  0
  -11.7173   -1.2156    0.0000 C   0  0  0  0  0  0  0  0  0  0  0  0
  -10.3414   -1.6244    0.0000 C   0  0  0  0  0  0  0  0  0  0  0  0
  -11.7308   -2.1897    0.0000 C   0  0  0  0  0  0  0  0  0  0  0  0
   -5.7077   -4.6471    0.0000 C   0  0  0  0  0  0  0  0  0  0  0  0
  -10.1464   -8.1071    0.0000 H   0  0  0  0  0  0  0  0  0  0  0  0
   -9.3714   -6.1324    0.0000 H   0  0  0  0  0  0  0  0  0  0  0  0
   -8.1717   -8.8821    0.0000 H   0  0  0  0  0  0  0  0  0  0  0  0
   -8.1597   -5.6159    0.0000 H   0  0  0  0  0  0  0  0  0  0  0  0
   -6.7969   -8.2822    0.0000 H   0  0  0  0  0  0  0  0  0  0  0  0
   -5.4221   -7.6824    0.0000 H   0  0  0  0  0  0  0  0  0  0  0  0
   -8.0807   -4.5843    0.0000 H   0  0  0  0  0  0  0  0  0  0  0  0
   -4.7741   -7.2023    0.0000 H   0  0  0  0  0  0  0  0  0  0  0  0
   -4.0638   -7.4509    0.0000 H   0  0  0  0  0  0  0  0  0  0  0  0
   -2.6972   -7.6049    0.0000 H   0  0  0  0  0  0  0  0  0  0  0  0
   -1.9494   -7.5206    0.0000 H   0  0  0  0  0  0  0  0  0  0  0  0
   -0.5338   -6.9259    0.0000 H   0  0  0  0  0  0  0  0  0  0  0  0
   -0.0141   -6.6660    0.0000 H   0  0  0  0  0  0  0  0  0  0  0  0
    0.8920   -5.8644    0.0000 H   0  0  0  0  0  0  0  0  0  0  0  0
    1.8272   -3.9410    0.0000 H   0  0  0  0  0  0  0  0  0  0  0  0
    2.4251   -4.2832    0.0000 H   0  0  0  0  0  0  0  0  0  0  0  0
    0.0113   -6.0647    0.0000 H   0  0  0  0  0  0  0  0  0  0  0  0
    4.3132   -5.7309    0.0000 H   0  0  0  0  0  0  0  0  0  0  0  0
    4.6885   -7.8744    0.0000 H   0  0  0  0  0  0  0  0  0  0  0  0
    1.6927  -10.0410    0.0000 H   0  0  0  0  0  0  0  0  0  0  0  0
    4.3591   -8.7157    0.0000 H   0  0  0  0  0  0  0  0  0  0  0  0
    4.2797  -11.9011    0.0000 H   0  0  0  0  0  0  0  0  0  0  0  0
    2.2689  -11.2255    0.0000 H   0  0  0  0  0  0  0  0  0  0  0  0
    4.9554   -9.8903    0.0000 H   0  0  0  0  0  0  0  0  0  0  0  0
    1.0838   -9.7754    0.0000 H   0  0  0  0  0  0  0  0  0  0  0  0
    0.4139   -6.8569    0.0000 H   0  0  0  0  0  0  0  0  0  0  0  0
   -2.0394   -9.1441    0.0000 H   0  0  0  0  0  0  0  0  0  0  0  0
   -0.1764  -10.1586    0.0000 H   0  0  0  0  0  0  0  0  0  0  0  0
   -0.8463   -7.2401    0.0000 H   0  0  0  0  0  0  0  0  0  0  0  0
    1.8216   -3.1774    0.0000 H   0  0  0  0  0  0  0  0  0  0  0  0
    1.9075   -1.9706    0.0000 H   0  0  0  0  0  0  0  0  0  0  0  0
   -0.8358    0.1849    0.0000 H   0  0  0  0  0  0  0  0  0  0  0  0
    2.4310   -0.6100    0.0000 H   0  0  0  0  0  0  0  0  0  0  0  0
    3.1820    2.1213    0.0000 H   0  0  0  0  0  0  0  0  0  0  0  0
    3.1820    0.0000    0.0000 H   0  0  0  0  0  0  0  0  0  0  0  0
    1.1979    2.2427    0.0000 H   0  0  0  0  0  0  0  0  0  0  0  0
   -1.0607    2.1213    0.0000 H   0  0  0  0  0  0  0  0  0  0  0  0
    0.9235    2.2427    0.0000 H   0  0  0  0  0  0  0  0  0  0  0  0
   -0.8154   -2.9735    0.0000 H   0  0  0  0  0  0  0  0  0  0  0  0
    0.8820   -2.7970    0.0000 H   0  0  0  0  0  0  0  0  0  0  0  0
    0.8214    0.0634    0.0000 H   0  0  0  0  0  0  0  0  0  0  0  0
    3.3905   -1.1298    0.0000 H   0  0  0  0  0  0  0  0  0  0  0  0
    2.3769   -2.6737    0.0000 H   0  0  0  0  0  0  0  0  0  0  0  0
    2.1376    0.2273    0.0000 H   0  0  0  0  0  0  0  0  0  0  0  0
   -1.9517   -3.3147    0.0000 H   0  0  0  0  0  0  0  0  0  0  0  0
   -3.7488   -2.8067    0.0000 H   0  0  0  0  0  0  0  0  0  0  0  0
   -4.6935    0.0357    0.0000 H   0  0  0  0  0  0  0  0  0  0  0  0
   -3.6896   -2.9242    0.0000 H   0  0  0  0  0  0  0  0  0  0  0  0
   -5.7466   -0.8100    0.0000 H   0  0  0  0  0  0  0  0  0  0  0  0
   -6.6683   -3.7646    0.0000 H   0  0  0  0  0  0  0  0  0  0  0  0
   -6.8836   -1.7885    0.0000 H   0  0  0  0  0  0  0  0  0  0  0  0
   -4.6807   -3.7918    0.0000 H   0  0  0  0  0  0  0  0  0  0  0  0
   -2.1756   -0.9741    0.0000 H   0  0  0  0  0  0  0  0  0  0  0  0
   -3.5788    1.7764    0.0000 H   0  0  0  0  0  0  0  0  0  0  0  0
   -5.1740    1.2182    0.0000 H   0  0  0  0  0  0  0  0  0  0  0  0
   -6.2978    0.5901    0.0000 H   0  0  0  0  0  0  0  0  0  0  0  0
   -7.2891   -0.9174    0.0000 H   0  0  0  0  0  0  0  0  0  0  0  0
   -7.3401   -4.2097    0.0000 H   0  0  0  0  0  0  0  0  0  0  0  0
   -8.0633   -3.9320    0.0000 H   0  0  0  0  0  0  0  0  0  0  0  0
   -7.1701   -1.0740    0.0000 H   0  0  0  0  0  0  0  0  0  0  0  0
   -8.3955   -0.4017    0.0000 H   0  0  0  0  0  0  0  0  0  0  0  0
   -9.0228   -4.3109    0.0000 H   0  0  0  0  0  0  0  0  0  0  0  0
  -11.7480   -4.9613    0.0000 H   0  0  0  0  0  0  0  0  0  0  0  0
  -13.1572   -3.8287    0.0000 H   0  0  0  0  0  0  0  0  0  0  0  0
  -13.6136   -1.8739    0.0000 H   0  0  0  0  0  0  0  0  0  0  0  0
  -13.0891   -0.6089    0.0000 H   0  0  0  0  0  0  0  0  0  0  0  0
  -11.4347    0.2575    0.0000 H   0  0  0  0  0  0  0  0  0  0  0  0
  -13.1201   -2.7551    0.0000 H   0  0  0  0  0  0  0  0  0  0  0  0
  -12.7566   -1.0954    0.0000 H   0  0  0  0  0  0  0  0  0  0  0  0
   -7.1887   -4.4087    0.0000 H   0  0  0  0  0  0  0  0  0  0  0  0
   -6.6224   -5.8359    0.0000 H   0  0  0  0  0  0  0  0  0  0  0  0
  1  2  1  0
  2  3  1  0
  3  4  1  0
  3  5  1  0
  5  6  1  0
  6  7  1  0
  7  8  1  0
  8  9  1  0
  9 10  1  0
 10 11  1  0
 11 12  1  0
 12 13  1  0
 13 14  1  0
 14 15  1  0
 13 16  1  0
 16 17  1  0
  9 18  1  0
 18 19  1  0
 19 20  1  0
 20 21  1  0
 20 22  1  0
 22 23  1  0
 23 24  1  0
 24 25  1  0
 25 26  1  0
 24 27  1  0
 27 28  1  0
 28 29  1  0
 29 30  1  0
 28 31  1  0
 31 32  1  0
 32 33  1  0
 33 34  2  0
 34 35  1  0
 35 36  1  0
 36 37  1  0
 37 38  1  0
 38 39  1  0
 39 40  1  0
 40 41  1  0
 41 42  1  0
 42 43  1  0
 35 44  1  0
 44  5  1  0
 13 11  1  0
 23 19  1  0
 42 37  1  0
 31 23  1  0
 42 38  1  0
 43 39  1  0
  1 45  1  0
  1 46  1  0
  1 47  1  0
  2 48  1  0
  2 49  1  0
  3 50  1  0
  4 51  1  0
  5 52  1  0
  6 53  1  0
  6 54  1  0
  7 55  1  0
  7 56  1  0
  8 57  1  0
  8 58  1  0
  9 59  1  0
 10 60  1  0
 10 61  1  0
 12 62  1  0
 12 63  1  0
 14 64  1  0
 14 65  1  0
 15 66  1  0
 15 67  1  0
 15 68  1  0
 16 69  1  0
 16 70  1  0
 17 71  1  0
 17 72  1  0
 17 73  1  0
 18 74  1  0
 18 75  1  0
 19 76  1  0
 20 77  1  0
 21 78  1  0
 21 79  1  0
 21 80  1  0
 22 81  1  0
 22 82  1  0
 24 83  1  0
 25 84  1  0
 25 85  1  0
 26 86  1  0
 26 87  1  0
 26 88  1  0
 27 89  1  0
 27 90  1  0
 28 91  1  0
 29 92  1  0
 29 93  1  0
 30 94  1  0
 30 95  1  0
 30 96  1  0
 31 97  1  0
 32 98  1  0
 32 99  1  0
 33100  1  0
 34101  1  0
 35102  1  0
 36103  1  0
 36104  1  0
 37105  1  0
 38106  1  0
 39107  1  0
 40108  1  0
 40109  1  0
 41110  1  0
 41111  1  0
 43112  1  0
 43113  1  0
 44114  1  0
 44115  1  0
M  END
$$$$
