
     RDKit          2D

 28 29  0  0  0  0  0  0  0  0999 V2000
   -4.8917    0.9352    0.0000 C   0  0  0  0  0  0  0  0  0  0  0  0
   -3.7190    0.0000    0.0000 C   0  0  0  0  0  0  0  0  0  0  0  0
   -3.0682    1.3515    0.0000 Al  0  0  0  0  0  3  0  0  0  0  0  0
   -1.6058    1.6852    0.0000 C   0  0  0  0  0  0  0  0  0  0  0  0
   -0.4330    0.7500    0.0000 C   0  0  0  0  0  0  0  0  0  0  0  0
    0.8660    0.0000    0.0000 C   0  0  0  0  0  0  0  0  0  0  0  0
    1.8302    1.1491    0.0000 O   0  0  0  0  0  0  0  0  0  0  0  0
   -0.4330   -0.7500    0.0000 C   0  0  0  0  0  0  0  0  0  0  0  0
   -1.6058   -1.6852    0.0000 C   0  0  0  0  0  0  0  0  0  0  0  0
   -1.2720   -3.1476    0.0000 O   0  0  0  0  0  0  0  0  0  0  0  0
   -3.0682   -1.3515    0.0000 C   0  0  0  0  0  0  0  0  0  0  0  0
   -4.5305   -1.6852    0.0000 C   0  0  0  0  0  0  0  0  0  0  0  0
   -5.9929   -2.0190    0.0000 O   0  0  0  0  0  0  0  0  0  0  0  0
   -6.0645    1.8705    0.0000 H   0  0  0  0  0  0  0  0  0  0  0  0
   -4.4280    1.6899    0.0000 H   0  0  0  0  0  0  0  0  0  0  0  0
   -5.8270   -0.2375    0.0000 H   0  0  0  0  0  0  0  0  0  0  0  0
   -4.9970   -0.7853    0.0000 H   0  0  0  0  0  0  0  0  0  0  0  0
   -3.4855    2.0306    0.0000 H   0  0  0  0  0  0  0  0  0  0  0  0
   -0.4330    2.6205    0.0000 H   0  0  0  0  0  0  0  0  0  0  0  0
   -2.2566    3.0367    0.0000 H   0  0  0  0  0  0  0  0  0  0  0  0
    0.4120    1.9894    0.0000 H   0  0  0  0  0  0  0  0  0  0  0  0
    1.8302   -1.1491    0.0000 H   0  0  0  0  0  0  0  0  0  0  0  0
    3.3074    0.8886    0.0000 H   0  0  0  0  0  0  0  0  0  0  0  0
    0.4120   -1.9894    0.0000 H   0  0  0  0  0  0  0  0  0  0  0  0
   -3.0682   -2.8515    0.0000 H   0  0  0  0  0  0  0  0  0  0  0  0
   -4.1968   -3.1476    0.0000 H   0  0  0  0  0  0  0  0  0  0  0  0
   -5.0401   -0.2744    0.0000 H   0  0  0  0  0  0  0  0  0  0  0  0
   -6.4351   -3.4524    0.0000 H   0  0  0  0  0  0  0  0  0  0  0  0
  1  2  1  0
  2  3  1  0
  3  4  1  0
  4  5  1  0
  5  6  1  0
  6  7  1  0
  6  8  1  0
  8  9  1  0
  9 10  2  0
  9 11  1  0
 11 12  1  0
 12 13  1  0
 11  2  1  0
  8  5  1  0
  1 14  1  0
  1 15  1  0
  1 16  1  0
  2 17  1  0
  3 18  1  0
  4 19  1  0
  4 20  1  0
  5 21  1  0
  6 22  1  0
  7 23  1  0
  8 24  1  0
 11 25  1  0
 12 26  1  0
 12 27  1  0
 13 28  1  0
M  END
$$$$
