
     RDKit          3D

 20 20  0  0  0  0  0  0  0  0999 V2000
   17.2826  -14.4090  -13.1172 N   0  0  0  0  0  0  0  0  0  0  0  0
   16.4248  -13.5961  -15.1406 C   0  0  0  0  0  0  0  0  0  0  0  0
   16.4507  -12.1321  -14.9746 N   0  0  0  0  0  0  0  0  0  0  0  0
   15.1859  -11.4866  -14.5147 C   0  0  0  0  0  0  0  0  0  0  0  0
   16.1032  -14.2634  -13.8734 N   0  0  0  0  0  0  0  0  0  0  0  0
   15.2792  -11.2965  -12.9751 C   0  0  0  0  0  0  0  0  0  0  0  0
   14.9915  -10.0731  -15.1818 C   0  0  0  0  0  0  0  0  0  0  0  0
   16.4628  -10.4202  -12.5205 C   0  0  0  0  0  0  0  0  0  0  0  0
   14.0569  -12.3023  -14.7487 O   0  0  0  0  0  0  0  0  0  0  0  0
   14.2321  -10.0047  -16.5288 C   0  0  0  0  0  0  0  0  0  0  0  0
   14.9555  -10.6183  -17.7537 C   0  0  0  0  0  0  0  0  0  0  0  0
   14.0138  -10.6973  -18.9460 C   0  0  0  0  0  0  0  0  0  0  0  0
   17.6390   -9.4208  -10.5205 C   0  0  0  0  0  0  0  0  0  0  0  0
   13.3705   -9.5463  -19.4443 C   0  0  0  0  0  0  0  0  0  0  0  0
   12.5114   -9.6352  -20.5437 C   0  0  0  0  0  0  0  0  0  0  0  0
   12.3010  -10.8650  -21.1734 C   0  0  0  0  0  0  0  0  0  0  0  0
   16.6097  -10.4446  -10.9934 C   0  0  0  0  0  0  0  0  0  0  0  0
   12.9453  -12.0102  -20.7003 C   0  0  0  0  0  0  0  0  0  0  0  0
   16.2218   -9.8349  -18.1373 C   0  0  0  0  0  0  0  0  0  0  0  0
   13.7951  -11.9293  -19.5915 C   0  0  0  0  0  0  0  0  0  0  0  0
  3  2  1  0
  4  3  1  0
  5  1  1  0
  5  2  1  0
  6  4  1  0
  7  4  1  0
  8  6  1  0
  9  4  1  0
 10  7  1  0
 11 10  1  0
 12 11  1  0
 14 12  4  0
 15 14  4  0
 16 15  4  0
 17  8  1  0
 17 13  1  0
 18 16  4  0
 19 11  1  0
 20 12  4  0
 20 18  4  0
M  END
$$$$
