
     RDKit          2D

 78 84  0  0  0  0  0  0  0  0999 V2000
  -11.9993   -5.7114    0.0000 C   0  0  0  0  0  0  0  0  0  0  0  0
  -10.7003   -6.4614    0.0000 C   0  0  0  0  0  0  0  0  0  0  0  0
   -9.4013   -7.2114    0.0000 C   0  0  0  0  0  0  0  0  0  0  0  0
   -8.1022   -6.4614    0.0000 C   0  0  0  0  0  0  0  0  0  0  0  0
   -6.8032   -7.2114    0.0000 C   0  0  0  0  0  0  0  0  0  0  0  0
   -5.5041   -7.9614    0.0000 C   0  0  0  0  0  0  0  0  0  0  0  0
   -4.2051   -8.7114    0.0000 C   0  0  0  0  0  0  0  0  0  0  0  0
   -2.9061   -9.4614    0.0000 C   0  0  0  0  0  0  0  0  0  0  0  0
   -1.6070  -10.2114    0.0000 C   0  0  0  0  0  0  0  0  0  0  0  0
   -3.6561  -10.7605    0.0000 C   0  0  0  0  0  0  0  0  0  0  0  0
   -4.4061  -12.0595    0.0000 C   0  0  0  0  0  0  0  0  0  0  0  0
   -6.0532   -5.9124    0.0000 C   0  0  0  0  0  0  0  0  0  0  0  0
   -5.3032   -4.6134    0.0000 C   0  0  0  0  0  0  0  0  0  0  0  0
   -6.4522   -3.6492    0.0000 C   0  0  0  0  0  0  0  0  0  0  0  0
   -5.0427   -3.1362    0.0000 C   0  0  0  0  0  0  0  0  0  0  0  0
   -3.5427   -3.1362    0.0000 C   0  0  0  0  0  0  0  0  0  0  0  0
   -3.9309   -1.6873    0.0000 C   0  0  0  0  0  0  0  0  0  0  0  0
   -3.1809   -0.3882    0.0000 C   0  0  0  0  0  0  0  0  0  0  0  0
   -1.7321    0.0000    0.0000 C   0  0  0  0  0  0  0  0  0  0  0  0
   -0.4330    0.7500    0.0000 C   0  0  0  0  0  0  0  0  0  0  0  0
    0.8660    0.0000    0.0000 C   0  0  0  0  0  0  0  0  0  0  0  0
    1.8302    1.1491    0.0000 C   0  0  0  0  0  0  0  0  0  0  0  0
   -0.4330   -0.7500    0.0000 C   0  0  0  0  0  0  0  0  0  0  0  0
   -0.0448   -2.1989    0.0000 N   0  0  0  0  0  0  0  0  0  0  0  0
   -0.7948   -3.4979    0.0000 C   0  0  0  0  0  0  0  0  0  0  0  0
   -0.4066   -4.9468    0.0000 C   0  0  0  0  0  0  0  0  0  0  0  0
   -1.8554   -5.3350    0.0000 C   0  0  0  0  0  0  0  0  0  0  0  0
   -2.2437   -3.8862    0.0000 C   0  0  0  0  0  0  0  0  0  0  0  0
   -4.6809   -0.3882    0.0000 C   0  0  0  0  0  0  0  0  0  0  0  0
   -6.1809   -0.3882    0.0000 C   0  0  0  0  0  0  0  0  0  0  0  0
   -5.4309    0.9108    0.0000 C   0  0  0  0  0  0  0  0  0  0  0  0
  -13.2984   -4.9614    0.0000 H   0  0  0  0  0  0  0  0  0  0  0  0
  -11.2493   -4.4124    0.0000 H   0  0  0  0  0  0  0  0  0  0  0  0
  -12.7493   -7.0105    0.0000 H   0  0  0  0  0  0  0  0  0  0  0  0
  -11.4503   -7.7605    0.0000 H   0  0  0  0  0  0  0  0  0  0  0  0
   -9.9503   -5.1624    0.0000 H   0  0  0  0  0  0  0  0  0  0  0  0
   -9.4013   -8.7114    0.0000 H   0  0  0  0  0  0  0  0  0  0  0  0
   -8.4652   -5.0060    0.0000 H   0  0  0  0  0  0  0  0  0  0  0  0
   -7.5532   -8.5105    0.0000 H   0  0  0  0  0  0  0  0  0  0  0  0
   -6.2541   -9.2605    0.0000 H   0  0  0  0  0  0  0  0  0  0  0  0
   -4.9711   -7.2541    0.0000 H   0  0  0  0  0  0  0  0  0  0  0  0
   -4.7382   -9.4188    0.0000 H   0  0  0  0  0  0  0  0  0  0  0  0
   -3.4551   -7.4124    0.0000 H   0  0  0  0  0  0  0  0  0  0  0  0
   -2.1561   -8.1624    0.0000 H   0  0  0  0  0  0  0  0  0  0  0  0
   -0.3080  -10.9614    0.0000 H   0  0  0  0  0  0  0  0  0  0  0  0
   -1.9531  -11.0268    0.0000 H   0  0  0  0  0  0  0  0  0  0  0  0
   -0.8570   -8.9124    0.0000 H   0  0  0  0  0  0  0  0  0  0  0  0
   -2.9487  -11.2935    0.0000 H   0  0  0  0  0  0  0  0  0  0  0  0
   -4.4714  -10.4144    0.0000 H   0  0  0  0  0  0  0  0  0  0  0  0
   -5.1561  -13.3586    0.0000 H   0  0  0  0  0  0  0  0  0  0  0  0
   -3.1070  -12.8095    0.0000 H   0  0  0  0  0  0  0  0  0  0  0  0
   -5.7051  -11.3095    0.0000 H   0  0  0  0  0  0  0  0  0  0  0  0
   -5.2379   -6.2585    0.0000 H   0  0  0  0  0  0  0  0  0  0  0  0
   -7.3522   -5.1624    0.0000 H   0  0  0  0  0  0  0  0  0  0  0  0
   -4.1712   -5.5975    0.0000 H   0  0  0  0  0  0  0  0  0  0  0  0
   -7.3550   -2.4513    0.0000 H   0  0  0  0  0  0  0  0  0  0  0  0
   -7.8005   -4.3067    0.0000 H   0  0  0  0  0  0  0  0  0  0  0  0
   -5.4813   -1.7017    0.0000 H   0  0  0  0  0  0  0  0  0  0  0  0
   -3.9309   -4.5850    0.0000 H   0  0  0  0  0  0  0  0  0  0  0  0
   -5.3764   -2.0881    0.0000 H   0  0  0  0  0  0  0  0  0  0  0  0
   -3.3767    1.0989    0.0000 H   0  0  0  0  0  0  0  0  0  0  0  0
   -2.3061    1.3858    0.0000 H   0  0  0  0  0  0  0  0  0  0  0  0
   -0.4330    2.2500    0.0000 H   0  0  0  0  0  0  0  0  0  0  0  0
    1.8302   -1.1491    0.0000 H   0  0  0  0  0  0  0  0  0  0  0  0
    2.7944    2.2981    0.0000 H   0  0  0  0  0  0  0  0  0  0  0  0
    2.9793    0.1849    0.0000 H   0  0  0  0  0  0  0  0  0  0  0  0
    0.6811    2.1132    0.0000 H   0  0  0  0  0  0  0  0  0  0  0  0
    1.4424   -2.3947    0.0000 H   0  0  0  0  0  0  0  0  0  0  0  0
    0.6924   -3.6937    0.0000 H   0  0  0  0  0  0  0  0  0  0  0  0
   -0.0183   -6.3957    0.0000 H   0  0  0  0  0  0  0  0  0  0  0  0
    1.0423   -4.5586    0.0000 H   0  0  0  0  0  0  0  0  0  0  0  0
   -3.2462   -5.8970    0.0000 H   0  0  0  0  0  0  0  0  0  0  0  0
   -1.4672   -6.7839    0.0000 H   0  0  0  0  0  0  0  0  0  0  0  0
   -3.1774   -5.0601    0.0000 H   0  0  0  0  0  0  0  0  0  0  0  0
   -6.6195   -1.8227    0.0000 H   0  0  0  0  0  0  0  0  0  0  0  0
   -7.5905    0.1248    0.0000 H   0  0  0  0  0  0  0  0  0  0  0  0
   -6.5800    1.8750    0.0000 H   0  0  0  0  0  0  0  0  0  0  0  0
   -4.2819    1.8750    0.0000 H   0  0  0  0  0  0  0  0  0  0  0  0
  1  2  1  0
  2  3  1  0
  3  4  2  3
  4  5  1  0
  5  6  1  0
  6  7  1  0
  7  8  1  0
  8  9  1  0
  8 10  1  0
 10 11  1  0
  5 12  1  0
 12 13  1  0
 13 14  1  0
 14 15  1  0
 15 16  1  0
 16 17  1  0
 17 18  1  0
 18 19  1  0
 19 20  1  0
 20 21  1  0
 21 22  1  0
 21 23  1  0
 23 24  1  1
 24 25  1  0
 25 26  1  0
 26 27  1  0
 27 28  1  0
 18 29  1  0
 29 30  1  0
 30 31  1  0
 15 13  1  0
 28 16  1  0
 31 29  1  0
 29 17  1  0
 23 19  1  0
 28 25  1  0
 23 20  1  0
  1 32  1  0
  1 33  1  0
  1 34  1  0
  2 35  1  0
  2 36  1  0
  3 37  1  0
  4 38  1  0
  5 39  1  6
  6 40  1  0
  6 41  1  0
  7 42  1  0
  7 43  1  0
  8 44  1  6
  9 45  1  0
  9 46  1  0
  9 47  1  0
 10 48  1  0
 10 49  1  0
 11 50  1  0
 11 51  1  0
 11 52  1  0
 12 53  1  0
 12 54  1  0
 13 55  1  6
 14 56  1  0
 14 57  1  0
 15 58  1  1
 16 59  1  1
 17 60  1  1
 18 61  1  6
 19 62  1  6
 20 63  1  1
 21 64  1  6
 22 65  1  0
 22 66  1  0
 22 67  1  0
 24 68  1  0
 25 69  1  1
 26 70  1  0
 26 71  1  0
 27 72  1  0
 27 73  1  0
 28 74  1  1
 30 75  1  0
 30 76  1  0
 31 77  1  0
 31 78  1  0
M  END
$$$$
