
     RDKit          2D

 74 86  0  0  0  0  0  0  0  0999 V2000
   -8.9379    2.0641    0.0000 C   0  0  0  0  0  0  0  0  0  0  0  0
   -7.7244    1.1824    0.0000 C   0  0  0  0  0  0  0  0  0  0  0  0
   -6.3541    1.7925    0.0000 C   0  0  0  0  0  0  0  0  0  0  0  0
   -5.8906    0.3659    0.0000 C   0  0  0  0  0  0  0  0  0  0  0  0
   -4.3906    0.3659    0.0000 C   0  0  0  0  0  0  0  0  0  0  0  0
   -3.9271   -1.0607    0.0000 O   0  0  0  0  0  0  0  0  0  0  0  0
   -2.7135   -1.9423    0.0000 C   0  0  0  0  0  0  0  0  0  0  0  0
   -3.1771   -3.3689    0.0000 C   0  0  0  0  0  0  0  0  0  0  0  0
   -1.9635   -4.2506    0.0000 C   0  0  0  0  0  0  0  0  0  0  0  0
   -0.7500   -3.3689    0.0000 C   0  0  0  0  0  0  0  0  0  0  0  0
   -1.2135   -1.9423    0.0000 C   0  0  0  0  0  0  0  0  0  0  0  0
   -0.0000   -1.0607    0.0000 C   0  0  0  0  0  0  0  0  0  0  0  0
    1.0607    0.0000    0.0000 C   0  0  0  0  0  0  0  0  0  0  0  0
    0.0000    1.0607    0.0000 C   0  0  0  0  0  0  0  0  0  0  0  0
   -1.2135    2.6742    0.0000 N   0  0  0  0  0  0  0  0  0  0  0  0
   -2.7135    2.6742    0.0000 C   0  0  0  0  0  0  0  0  0  0  0  0
   -1.7098    3.7889    0.0000 C   0  0  0  0  0  0  0  0  0  0  0  0
   -0.9598    5.0879    0.0000 C   0  0  0  0  0  0  0  0  0  0  0  0
   -2.4598    5.0879    0.0000 C   0  0  0  0  0  0  0  0  0  0  0  0
   -3.9271    4.7761    0.0000 C   0  0  0  0  0  0  0  0  0  0  0  0
   -4.0838    3.2843    0.0000 C   0  0  0  0  0  0  0  0  0  0  0  0
   -3.9271    1.7925    0.0000 C   0  0  0  0  0  0  0  0  0  0  0  0
   -5.1406    2.6742    0.0000 C   0  0  0  0  0  0  0  0  0  0  0  0
   -1.0607    0.0000    0.0000 S   0  0  0  0  0  0  0  0  0  0  0  0
   -0.5932   -4.8607    0.0000 C   0  0  0  0  0  0  0  0  0  0  0  0
   -3.7436   -2.3291    0.0000 C   0  0  0  0  0  0  0  0  0  0  0  0
   -5.2353   -2.4859    0.0000 C   0  0  0  0  0  0  0  0  0  0  0  0
   -6.4489   -3.3676    0.0000 C   0  0  0  0  0  0  0  0  0  0  0  0
   -6.6057   -1.8758    0.0000 C   0  0  0  0  0  0  0  0  0  0  0  0
   -5.9955   -0.5055    0.0000 C   0  0  0  0  0  0  0  0  0  0  0  0
   -6.3925   -0.6579    0.0000 C   0  0  0  0  0  0  0  0  0  0  0  0
   -8.2933   -0.5456    0.0000 C   0  0  0  0  0  0  0  0  0  0  0  0
   -5.5986   -0.3531    0.0000 C   0  0  0  0  0  0  0  0  0  0  0  0
   -6.0471    2.4485    0.0000 C   0  0  0  0  0  0  0  0  0  0  0  0
   -4.6252   -1.1156    0.0000 C   0  0  0  0  0  0  0  0  0  0  0  0
  -10.3083    1.4540    0.0000 H   0  0  0  0  0  0  0  0  0  0  0  0
   -8.7812    3.5559    0.0000 H   0  0  0  0  0  0  0  0  0  0  0  0
   -8.4055   -0.1541    0.0000 H   0  0  0  0  0  0  0  0  0  0  0  0
   -7.1041    3.0915    0.0000 H   0  0  0  0  0  0  0  0  0  0  0  0
   -6.0994   -1.1195    0.0000 H   0  0  0  0  0  0  0  0  0  0  0  0
   -7.3849    0.2352    0.0000 H   0  0  0  0  0  0  0  0  0  0  0  0
   -1.8318   -3.1559    0.0000 H   0  0  0  0  0  0  0  0  0  0  0  0
   -4.6543   -3.1085    0.0000 H   0  0  0  0  0  0  0  0  0  0  0  0
   -3.7631   -4.7497    0.0000 H   0  0  0  0  0  0  0  0  0  0  0  0
   -2.7135   -5.5496    0.0000 H   0  0  0  0  0  0  0  0  0  0  0  0
    0.7491   -3.4214    0.0000 H   0  0  0  0  0  0  0  0  0  0  0  0
    0.2131   -2.4059    0.0000 H   0  0  0  0  0  0  0  0  0  0  0  0
    0.3630   -2.5161    0.0000 H   0  0  0  0  0  0  0  0  0  0  0  0
    2.1213    1.0607    0.0000 H   0  0  0  0  0  0  0  0  0  0  0  0
    2.1213   -1.0607    0.0000 H   0  0  0  0  0  0  0  0  0  0  0  0
    0.1828    2.5495    0.0000 H   0  0  0  0  0  0  0  0  0  0  0  0
   -0.7500    4.1008    0.0000 H   0  0  0  0  0  0  0  0  0  0  0  0
   -0.2609    3.4008    0.0000 H   0  0  0  0  0  0  0  0  0  0  0  0
    0.4497    4.5749    0.0000 H   0  0  0  0  0  0  0  0  0  0  0  0
   -0.6994    6.5652    0.0000 H   0  0  0  0  0  0  0  0  0  0  0  0
   -2.6166    6.5797    0.0000 H   0  0  0  0  0  0  0  0  0  0  0  0
   -4.0838    6.2679    0.0000 H   0  0  0  0  0  0  0  0  0  0  0  0
   -5.4271    4.7761    0.0000 H   0  0  0  0  0  0  0  0  0  0  0  0
   -5.4842    3.8220    0.0000 H   0  0  0  0  0  0  0  0  0  0  0  0
   -6.1443    3.7889    0.0000 H   0  0  0  0  0  0  0  0  0  0  0  0
   -4.4364    3.9986    0.0000 H   0  0  0  0  0  0  0  0  0  0  0  0
    0.2885   -6.0742    0.0000 H   0  0  0  0  0  0  0  0  0  0  0  0
   -4.3177   -3.7149    0.0000 H   0  0  0  0  0  0  0  0  0  0  0  0
   -5.7913   -4.7158    0.0000 H   0  0  0  0  0  0  0  0  0  0  0  0
   -7.8908   -3.7811    0.0000 H   0  0  0  0  0  0  0  0  0  0  0  0
   -8.1047   -1.8235    0.0000 H   0  0  0  0  0  0  0  0  0  0  0  0
   -8.3434    1.3619    0.0000 H   0  0  0  0  0  0  0  0  0  0  0  0
   -9.4254   -1.5297    0.0000 H   0  0  0  0  0  0  0  0  0  0  0  0
   -9.2774    0.5865    0.0000 H   0  0  0  0  0  0  0  0  0  0  0  0
   -7.7804   -1.9552    0.0000 H   0  0  0  0  0  0  0  0  0  0  0  0
   -4.3120    1.3643    0.0000 H   0  0  0  0  0  0  0  0  0  0  0  0
   -6.5107    3.8750    0.0000 H   0  0  0  0  0  0  0  0  0  0  0  0
   -7.5435    2.3439    0.0000 H   0  0  0  0  0  0  0  0  0  0  0  0
   -4.8815    3.3926    0.0000 H   0  0  0  0  0  0  0  0  0  0  0  0
  1  2  2  3
  2  3  1  0
  3  4  1  0
  4  5  1  0
  5  6  1  0
  6  7  1  0
  7  8  1  0
  8  9  1  0
  9 10  1  0
 10 11  1  0
 11 12  1  0
 12 13  1  0
 13 14  1  0
 14 15  1  0
 15 16  1  0
 16 17  1  0
 17 18  1  0
 18 19  1  0
 19 20  1  0
 20 21  1  0
 21 22  1  0
 22 23  1  0
 14 24  1  0
 10 25  1  0
 25 26  1  0
 26 27  1  0
 27 28  1  0
 28 29  1  0
 29 30  1  0
 30 31  1  0
 31 32  1  0
 31 33  1  0
 33 34  1  0
 30 35  1  0
 23  3  1  0
 35 26  1  0
 22  5  1  0
 29 27  1  0
 33 30  1  0
 35  5  1  0
 11  7  1  0
 24 12  1  0
 35 27  1  0
 25  9  1  0
 21 16  1  0
 22 16  1  0
 19 17  1  0
  1 36  1  0
  1 37  1  0
  2 38  1  0
  3 39  1  0
  4 40  1  0
  4 41  1  0
  7 42  1  0
  8 43  1  0
  8 44  1  0
  9 45  1  0
 10 46  1  0
 11 47  1  0
 12 48  1  0
 13 49  1  0
 13 50  1  0
 14 51  1  0
 15 52  1  0
 17 53  1  0
 18 54  1  0
 18 55  1  0
 19 56  1  0
 20 57  1  0
 20 58  1  0
 21 59  1  0
 23 60  1  0
 23 61  1  0
 25 62  1  0
 26 63  1  0
 28 64  1  0
 28 65  1  0
 29 66  1  0
 31 67  1  0
 32 68  1  0
 32 69  1  0
 32 70  1  0
 33 71  1  0
 34 72  1  0
 34 73  1  0
 34 74  1  0
M  END
$$$$
