
     RDKit          2D

 53 56  0  0  0  0  0  0  0  0999 V2000
    0.9480    4.7881    0.0000 C   0  0  0  0  0  0  0  0  0  0  0  0
    0.2176    3.4779    0.0000 C   0  0  0  0  0  0  0  0  0  0  0  0
    1.5969    2.8884    0.0000 C   0  0  0  0  0  0  0  0  0  0  0  0
    1.4624    1.3944    0.0000 C   0  0  0  0  0  0  0  0  0  0  0  0
    2.6351    0.4592    0.0000 C   0  0  0  0  0  0  0  0  0  0  0  0
    3.2860    1.8107    0.0000 C   0  0  0  0  0  0  0  0  0  0  0  0
    3.9368    3.1621    0.0000 C   0  0  0  0  0  0  0  0  0  0  0  0
    4.5876    4.5136    0.0000 C   0  0  0  0  0  0  0  0  0  0  0  0
    5.6614    5.5609    0.0000 C   0  0  0  0  0  0  0  0  0  0  0  0
    4.8164    6.8003    0.0000 C   0  0  0  0  0  0  0  0  0  0  0  0
    6.0316    4.1073    0.0000 C   0  0  0  0  0  0  0  0  0  0  0  0
    7.5274    4.2194    0.0000 C   0  0  0  0  0  0  0  0  0  0  0  0
    5.8822    2.6148    0.0000 C   0  0  0  0  0  0  0  0  0  0  0  0
    2.6351   -1.0408    0.0000 C   0  0  0  0  0  0  0  0  0  0  0  0
    1.4624   -1.9760    0.0000 C   0  0  0  0  0  0  0  0  0  0  0  0
   -0.0000   -1.0607    0.0000 C   0  0  0  0  0  0  0  0  0  0  0  0
   -0.0000   -2.5607    0.0000 O   0  0  0  0  0  0  0  0  0  0  0  0
    1.0607    0.0000    0.0000 O   0  0  0  0  0  0  0  0  0  0  0  0
    0.0000    1.0607    0.0000 C   0  0  0  0  0  0  0  0  0  0  0  0
   -0.7693    2.3483    0.0000 C   0  0  0  0  0  0  0  0  0  0  0  0
   -1.0607    0.0000    0.0000 C   0  0  0  0  0  0  0  0  0  0  0  0
   -2.1213   -1.0607    0.0000 Cl  0  0  0  0  0  0  0  0  0  0  0  0
    1.6785    6.0982    0.0000 H   0  0  0  0  0  0  0  0  0  0  0  0
    1.6443    4.3998    0.0000 H   0  0  0  0  0  0  0  0  0  0  0  0
   -0.3621    5.5185    0.0000 H   0  0  0  0  0  0  0  0  0  0  0  0
   -1.0090    4.3414    0.0000 H   0  0  0  0  0  0  0  0  0  0  0  0
    3.0929    2.7801    0.0000 H   0  0  0  0  0  0  0  0  0  0  0  0
    1.8318    3.6501    0.0000 H   0  0  0  0  0  0  0  0  0  0  0  0
    2.7595    2.1477    0.0000 H   0  0  0  0  0  0  0  0  0  0  0  0
    4.1273    0.3062    0.0000 H   0  0  0  0  0  0  0  0  0  0  0  0
    4.6374    1.1598    0.0000 H   0  0  0  0  0  0  0  0  0  0  0  0
    2.1322    2.7692    0.0000 H   0  0  0  0  0  0  0  0  0  0  0  0
    5.0906    2.2036    0.0000 H   0  0  0  0  0  0  0  0  0  0  0  0
    2.5853    3.8129    0.0000 H   0  0  0  0  0  0  0  0  0  0  0  0
    3.2721    5.2342    0.0000 H   0  0  0  0  0  0  0  0  0  0  0  0
    6.9433    6.3399    0.0000 H   0  0  0  0  0  0  0  0  0  0  0  0
    3.9715    8.0396    0.0000 H   0  0  0  0  0  0  0  0  0  0  0  0
    6.0558    7.6453    0.0000 H   0  0  0  0  0  0  0  0  0  0  0  0
    3.4833    6.1127    0.0000 H   0  0  0  0  0  0  0  0  0  0  0  0
    9.0232    4.3315    0.0000 H   0  0  0  0  0  0  0  0  0  0  0  0
    7.8210    2.7484    0.0000 H   0  0  0  0  0  0  0  0  0  0  0  0
    7.5984    5.7177    0.0000 H   0  0  0  0  0  0  0  0  0  0  0  0
    5.7328    1.1222    0.0000 H   0  0  0  0  0  0  0  0  0  0  0  0
    7.3454    2.2846    0.0000 H   0  0  0  0  0  0  0  0  0  0  0  0
    4.3979    2.3985    0.0000 H   0  0  0  0  0  0  0  0  0  0  0  0
    4.1273   -0.8878    0.0000 H   0  0  0  0  0  0  0  0  0  0  0  0
    3.4458   -2.3028    0.0000 H   0  0  0  0  0  0  0  0  0  0  0  0
    2.5124   -3.0472    0.0000 H   0  0  0  0  0  0  0  0  0  0  0  0
    0.8116   -3.3275    0.0000 H   0  0  0  0  0  0  0  0  0  0  0  0
   -1.2990   -3.3107    0.0000 H   0  0  0  0  0  0  0  0  0  0  0  0
   -1.7896    3.4479    0.0000 H   0  0  0  0  0  0  0  0  0  0  0  0
   -2.0703    1.6016    0.0000 H   0  0  0  0  0  0  0  0  0  0  0  0
   -2.2427    0.9235    0.0000 H   0  0  0  0  0  0  0  0  0  0  0  0
  1  2  1  0
  2  3  1  0
  3  4  1  0
  4  5  1  0
  5  6  1  0
  6  7  1  0
  7  8  1  0
  8  9  1  0
  9 10  1  0
  9 11  1  0
 11 12  1  0
 11 13  1  0
  5 14  1  0
 14 15  1  0
 15 16  1  0
 16 17  1  0
 16 18  1  0
 18 19  1  0
 19 20  1  0
 19 21  1  0
 21 22  1  0
 20  2  1  0
 19  4  1  0
 11  8  1  0
 21 16  1  0
  1 23  1  0
  1 24  1  0
  1 25  1  0
  2 26  1  0
  3 27  1  0
  3 28  1  0
  4 29  1  0
  5 30  1  0
  6 31  1  0
  6 32  1  0
  7 33  1  0
  7 34  1  0
  8 35  1  0
  9 36  1  0
 10 37  1  0
 10 38  1  0
 10 39  1  0
 12 40  1  0
 12 41  1  0
 12 42  1  0
 13 43  1  0
 13 44  1  0
 13 45  1  0
 14 46  1  0
 14 47  1  0
 15 48  1  0
 15 49  1  0
 17 50  1  0
 20 51  1  0
 20 52  1  0
 21 53  1  0
M  END
$$$$
