
     RDKit          2D

 27 28  0  0  0  0  0  0  0  0999 V2000
    2.3216   -5.4714    0.0000 N   0  0  0  0  0  0  0  0  0  0  0  0
    3.1820   -4.2426    0.0000 C   0  0  0  0  0  0  0  0  0  0  0  0
    2.1213   -3.1820    0.0000 C   0  0  0  0  0  0  0  0  0  0  0  0
    1.0607   -2.1213    0.0000 C   0  0  0  0  0  0  0  0  0  0  0  0
   -0.0000   -1.0607    0.0000 C   0  0  0  0  0  0  0  0  0  0  0  0
   -1.0607   -2.1213    0.0000 C   0  0  0  0  0  0  0  0  0  0  0  0
   -2.1213   -1.0607    0.0000 C   0  0  0  0  0  0  0  0  0  0  0  0
   -1.0607    0.0000    0.0000 C   0  0  0  0  0  0  0  0  0  0  0  0
    4.5414   -4.8766    0.0000 C   0  0  0  0  0  0  0  0  0  0  0  0
    4.4107   -3.3823    0.0000 C   0  0  0  0  0  0  0  0  0  0  0  0
    2.9555   -6.8308    0.0000 H   0  0  0  0  0  0  0  0  0  0  0  0
    0.8273   -5.3406    0.0000 H   0  0  0  0  0  0  0  0  0  0  0  0
    2.9524   -2.1181    0.0000 H   0  0  0  0  0  0  0  0  0  0  0  0
    1.0607   -4.2426    0.0000 H   0  0  0  0  0  0  0  0  0  0  0  0
    2.1213   -1.0607    0.0000 H   0  0  0  0  0  0  0  0  0  0  0  0
    0.5154   -2.8193    0.0000 H   0  0  0  0  0  0  0  0  0  0  0  0
    1.0607   -0.0000    0.0000 H   0  0  0  0  0  0  0  0  0  0  0  0
   -2.1213   -3.1820    0.0000 H   0  0  0  0  0  0  0  0  0  0  0  0
   -0.5154   -2.8193    0.0000 H   0  0  0  0  0  0  0  0  0  0  0  0
   -3.1820   -0.0000    0.0000 H   0  0  0  0  0  0  0  0  0  0  0  0
   -3.1820   -2.1213    0.0000 H   0  0  0  0  0  0  0  0  0  0  0  0
    0.0000    1.0607    0.0000 H   0  0  0  0  0  0  0  0  0  0  0  0
   -2.1213    1.0607    0.0000 H   0  0  0  0  0  0  0  0  0  0  0  0
    4.1532   -6.3255    0.0000 H   0  0  0  0  0  0  0  0  0  0  0  0
    6.0357   -5.0073    0.0000 H   0  0  0  0  0  0  0  0  0  0  0  0
    5.8596   -2.9940    0.0000 H   0  0  0  0  0  0  0  0  0  0  0  0
    3.9936   -2.0983    0.0000 H   0  0  0  0  0  0  0  0  0  0  0  0
  1  2  1  0
  2  3  1  0
  3  4  1  0
  4  5  1  0
  5  6  1  0
  6  7  1  0
  7  8  1  0
  2  9  1  0
  9 10  1  0
 10  2  1  0
  8  5  1  0
  1 11  1  0
  1 12  1  0
  3 13  1  0
  3 14  1  0
  4 15  1  0
  4 16  1  0
  5 17  1  0
  6 18  1  0
  6 19  1  0
  7 20  1  0
  7 21  1  0
  8 22  1  0
  8 23  1  0
  9 24  1  0
  9 25  1  0
 10 26  1  0
 10 27  1  0
M  END
$$$$
