
     RDKit          2D

 47 49  0  0  0  0  0  0  0  0999 V2000
    5.6869    5.7453    0.0000 C   0  0  0  0  0  0  0  0  0  0  0  0
    4.7228    4.5963    0.0000 C   0  0  0  0  0  0  0  0  0  0  0  0
    3.7586    3.4472    0.0000 C   0  0  0  0  0  0  0  0  0  0  0  0
    2.7944    2.2981    0.0000 C   0  0  0  0  0  0  0  0  0  0  0  0
    1.8302    1.1491    0.0000 C   0  0  0  0  0  0  0  0  0  0  0  0
    0.8660    0.0000    0.0000 C   0  0  0  0  0  0  0  0  0  0  0  0
    1.8302   -1.1491    0.0000 C   0  0  0  0  0  0  0  0  0  0  0  0
    2.7944   -2.2981    0.0000 C   0  0  0  0  0  0  0  0  0  0  0  0
    3.7586   -3.4472    0.0000 C   0  0  0  0  0  0  0  0  0  0  0  0
    4.7228   -4.5963    0.0000 C   0  0  0  0  0  0  0  0  0  0  0  0
   -0.4330    0.7500    0.0000 C   0  0  0  0  0  0  0  0  0  0  0  0
   -1.9330    0.7500    0.0000 C   0  0  0  0  0  0  0  0  0  0  0  0
   -1.9330   -0.7500    0.0000 C   0  0  0  0  0  0  0  0  0  0  0  0
   -1.9330   -2.2500    0.0000 C   0  0  0  0  0  0  0  0  0  0  0  0
   -2.4460   -3.6595    0.0000 C   0  0  0  0  0  0  0  0  0  0  0  0
   -3.4102   -2.5105    0.0000 C   0  0  0  0  0  0  0  0  0  0  0  0
   -0.4330   -0.7500    0.0000 C   0  0  0  0  0  0  0  0  0  0  0  0
    6.6511    6.8944    0.0000 H   0  0  0  0  0  0  0  0  0  0  0  0
    6.8360    4.7812    0.0000 H   0  0  0  0  0  0  0  0  0  0  0  0
    4.5379    6.7095    0.0000 H   0  0  0  0  0  0  0  0  0  0  0  0
    5.8718    3.6321    0.0000 H   0  0  0  0  0  0  0  0  0  0  0  0
    3.5737    5.5604    0.0000 H   0  0  0  0  0  0  0  0  0  0  0  0
    2.6095    4.4114    0.0000 H   0  0  0  0  0  0  0  0  0  0  0  0
    4.9076    2.4830    0.0000 H   0  0  0  0  0  0  0  0  0  0  0  0
    3.9435    1.3340    0.0000 H   0  0  0  0  0  0  0  0  0  0  0  0
    1.6453    3.2623    0.0000 H   0  0  0  0  0  0  0  0  0  0  0  0
    2.8492    0.4874    0.0000 H   0  0  0  0  0  0  0  0  0  0  0  0
    0.8072    2.2461    0.0000 H   0  0  0  0  0  0  0  0  0  0  0  0
    2.8492   -0.4874    0.0000 H   0  0  0  0  0  0  0  0  0  0  0  0
    0.9095   -2.1364    0.0000 H   0  0  0  0  0  0  0  0  0  0  0  0
    1.6453   -3.2623    0.0000 H   0  0  0  0  0  0  0  0  0  0  0  0
    3.9435   -1.3340    0.0000 H   0  0  0  0  0  0  0  0  0  0  0  0
    4.9076   -2.4830    0.0000 H   0  0  0  0  0  0  0  0  0  0  0  0
    2.6095   -4.4114    0.0000 H   0  0  0  0  0  0  0  0  0  0  0  0
    5.6869   -5.7453    0.0000 H   0  0  0  0  0  0  0  0  0  0  0  0
    3.5737   -5.5604    0.0000 H   0  0  0  0  0  0  0  0  0  0  0  0
    5.8718   -3.6321    0.0000 H   0  0  0  0  0  0  0  0  0  0  0  0
   -0.2243    2.2354    0.0000 H   0  0  0  0  0  0  0  0  0  0  0  0
   -3.4330    0.7500    0.0000 H   0  0  0  0  0  0  0  0  0  0  0  0
   -1.9330    2.2500    0.0000 H   0  0  0  0  0  0  0  0  0  0  0  0
   -3.2729   -0.5854    0.0000 H   0  0  0  0  0  0  0  0  0  0  0  0
   -0.7711   -2.6053    0.0000 H   0  0  0  0  0  0  0  0  0  0  0  0
   -1.1470   -4.4095    0.0000 H   0  0  0  0  0  0  0  0  0  0  0  0
   -3.4102   -4.8086    0.0000 H   0  0  0  0  0  0  0  0  0  0  0  0
   -4.7093   -3.2605    0.0000 H   0  0  0  0  0  0  0  0  0  0  0  0
   -4.0231   -1.3076    0.0000 H   0  0  0  0  0  0  0  0  0  0  0  0
   -0.1500   -1.8062    0.0000 H   0  0  0  0  0  0  0  0  0  0  0  0
  1  2  1  0
  2  3  1  0
  3  4  1  0
  4  5  1  0
  5  6  1  0
  6  7  1  0
  7  8  1  0
  8  9  1  0
  9 10  1  0
  6 11  1  0
 11 12  1  0
 12 13  1  0
 13 14  1  0
 14 15  1  0
 15 16  1  0
 13 17  1  0
 17  6  1  0
 17 11  1  0
 16 14  1  0
  1 18  1  0
  1 19  1  0
  1 20  1  0
  2 21  1  0
  2 22  1  0
  3 23  1  0
  3 24  1  0
  4 25  1  0
  4 26  1  0
  5 27  1  0
  5 28  1  0
  7 29  1  0
  7 30  1  0
  8 31  1  0
  8 32  1  0
  9 33  1  0
  9 34  1  0
 10 35  1  0
 10 36  1  0
 10 37  1  0
 11 38  1  0
 12 39  1  0
 12 40  1  0
 13 41  1  0
 14 42  1  0
 15 43  1  0
 15 44  1  0
 16 45  1  0
 16 46  1  0
 17 47  1  0
M  END
$$$$
