
     RDKit          2D

 29 31  0  0  0  0  0  0  0  0999 V2000
    2.1213    1.0607    0.0000 O   0  0  0  0  0  0  0  0  0  0  0  0
    1.0607    0.0000    0.0000 C   0  0  0  0  0  0  0  0  0  0  0  0
    2.1213   -1.0607    0.0000 O   0  0  0  0  0  0  0  0  0  0  0  0
   -0.0000   -1.0607    0.0000 C   0  0  0  0  0  0  0  0  0  0  0  0
   -1.0607    0.0000    0.0000 C   0  0  0  0  0  0  0  0  0  0  0  0
   -2.3972    0.6810    0.0000 C   0  0  0  0  0  0  0  0  0  0  0  0
   -2.1625    2.1625    0.0000 C   0  0  0  0  0  0  0  0  0  0  0  0
   -3.6605    2.2410    0.0000 C   0  0  0  0  0  0  0  0  0  0  0  0
   -5.1584    2.3195    0.0000 C   0  0  0  0  0  0  0  0  0  0  0  0
   -5.0799    3.8175    0.0000 N   0  0  0  0  0  2  0  0  0  0  0  0
   -6.5778    3.8960    0.0000 C   0  0  0  0  0  0  0  0  0  0  0  0
   -6.6564    2.3980    0.0000 N   0  0  0  0  0  2  0  0  0  0  0  0
   -0.6810    2.3972    0.0000 Al  0  0  0  0  0  3  0  0  0  0  0  0
    0.0000    1.0607    0.0000 C   0  0  0  0  0  0  0  0  0  0  0  0
    3.5702    0.6724    0.0000 H   0  0  0  0  0  0  0  0  0  0  0  0
    3.5702   -0.6724    0.0000 H   0  0  0  0  0  0  0  0  0  0  0  0
    1.0607   -2.1213    0.0000 H   0  0  0  0  0  0  0  0  0  0  0  0
   -1.0607   -2.1213    0.0000 H   0  0  0  0  0  0  0  0  0  0  0  0
   -1.9423   -1.2135    0.0000 H   0  0  0  0  0  0  0  0  0  0  0  0
   -2.9347   -0.7194    0.0000 H   0  0  0  0  0  0  0  0  0  0  0  0
   -3.1866    0.7919    0.0000 H   0  0  0  0  0  0  0  0  0  0  0  0
   -2.2410    3.6605    0.0000 H   0  0  0  0  0  0  0  0  0  0  0  0
   -3.5820    3.7390    0.0000 H   0  0  0  0  0  0  0  0  0  0  0  0
   -3.7989    1.4560    0.0000 H   0  0  0  0  0  0  0  0  0  0  0  0
   -5.2369    0.8216    0.0000 H   0  0  0  0  0  0  0  0  0  0  0  0
   -8.0758    3.9745    0.0000 H   0  0  0  0  0  0  0  0  0  0  0  0
   -6.4993    5.3939    0.0000 H   0  0  0  0  0  0  0  0  0  0  0  0
    0.0000    3.7337    0.0000 H   0  0  0  0  0  0  0  0  0  0  0  0
    1.2135    1.9423    0.0000 H   0  0  0  0  0  0  0  0  0  0  0  0
  1  2  1  0
  2  3  1  0
  2  4  1  0
  4  5  1  0
  5  6  1  0
  6  7  1  0
  7  8  1  0
  8  9  1  0
  9 10  1  0
 10 11  1  0
 11 12  1  0
  7 13  1  0
 13 14  1  0
 14  2  1  0
 14  5  1  0
 12  9  1  0
  1 15  1  0
  3 16  1  0
  4 17  1  0
  4 18  1  0
  5 19  1  0
  6 20  1  0
  6 21  1  0
  7 22  1  0
  8 23  1  0
  8 24  1  0
  9 25  1  0
 11 26  1  0
 11 27  1  0
 13 28  1  0
 14 29  1  0
M  RAD  2  10   2  12   2
M  END
$$$$
