
     RDKit          2D

 38 40  0  0  0  0  0  0  0  0999 V2000
   -1.0623    5.2981    0.0000 C   0  0  0  0  0  0  0  0  0  0  0  0
   -0.0982    4.1491    0.0000 C   0  0  0  0  0  0  0  0  0  0  0  0
    0.8660    3.0000    0.0000 C   0  0  0  0  0  0  0  0  0  0  0  0
    1.8302    4.1491    0.0000 Sb  0  0  0  0  0  3  0  0  0  0  0  0
    2.1651    2.2500    0.0000 C   0  0  0  0  0  0  0  0  0  0  0  0
    2.1651    0.7500    0.0000 C   0  0  0  0  0  0  0  0  0  0  0  0
    0.8660    0.0000    0.0000 C   0  0  0  0  0  0  0  0  0  0  0  0
   -0.4330    0.7500    0.0000 C   0  0  0  0  0  0  0  0  0  0  0  0
   -0.4330    2.2500    0.0000 C   0  0  0  0  0  0  0  0  0  0  0  0
   -0.4330   -0.7500    0.0000 C   0  0  0  0  0  0  0  0  0  0  0  0
    0.0800   -2.1595    0.0000 C   0  0  0  0  0  0  0  0  0  0  0  0
   -1.9102   -1.0105    0.0000 C   0  0  0  0  0  0  0  0  0  0  0  0
   -3.3874   -1.2709    0.0000 C   0  0  0  0  0  0  0  0  0  0  0  0
   -4.6865   -2.0209    0.0000 C   0  0  0  0  0  0  0  0  0  0  0  0
   -3.3874   -2.7709    0.0000 C   0  0  0  0  0  0  0  0  0  0  0  0
   -2.0265    6.4472    0.0000 H   0  0  0  0  0  0  0  0  0  0  0  0
   -2.2114    4.3340    0.0000 H   0  0  0  0  0  0  0  0  0  0  0  0
    0.0867    6.2623    0.0000 H   0  0  0  0  0  0  0  0  0  0  0  0
    0.6476    4.9488    0.0000 H   0  0  0  0  0  0  0  0  0  0  0  0
   -0.7667    3.7149    0.0000 H   0  0  0  0  0  0  0  0  0  0  0  0
    3.3282    4.0706    0.0000 H   0  0  0  0  0  0  0  0  0  0  0  0
    1.5843    5.2145    0.0000 H   0  0  0  0  0  0  0  0  0  0  0  0
    3.5458    2.8361    0.0000 H   0  0  0  0  0  0  0  0  0  0  0  0
    3.4641   -0.0000    0.0000 H   0  0  0  0  0  0  0  0  0  0  0  0
    1.7688   -1.1979    0.0000 H   0  0  0  0  0  0  0  0  0  0  0  0
   -1.9218    0.9328    0.0000 H   0  0  0  0  0  0  0  0  0  0  0  0
   -1.9102    1.9895    0.0000 H   0  0  0  0  0  0  0  0  0  0  0  0
   -0.7949    2.9603    0.0000 H   0  0  0  0  0  0  0  0  0  0  0  0
    0.5930   -3.5691    0.0000 H   0  0  0  0  0  0  0  0  0  0  0  0
   -1.1635   -2.9984    0.0000 H   0  0  0  0  0  0  0  0  0  0  0  0
    1.5416   -1.8222    0.0000 H   0  0  0  0  0  0  0  0  0  0  0  0
   -1.6498   -2.4877    0.0000 H   0  0  0  0  0  0  0  0  0  0  0  0
   -2.3488    0.4240    0.0000 H   0  0  0  0  0  0  0  0  0  0  0  0
   -3.9005    0.1386    0.0000 H   0  0  0  0  0  0  0  0  0  0  0  0
   -5.6507   -0.8719    0.0000 H   0  0  0  0  0  0  0  0  0  0  0  0
   -5.6507   -3.1700    0.0000 H   0  0  0  0  0  0  0  0  0  0  0  0
   -3.9005   -4.1805    0.0000 H   0  0  0  0  0  0  0  0  0  0  0  0
   -2.0172   -3.3811    0.0000 H   0  0  0  0  0  0  0  0  0  0  0  0
  1  2  1  0
  2  3  1  0
  3  4  1  6
  3  5  1  0
  5  6  2  0
  6  7  1  0
  7  8  1  0
  8  9  1  0
  8 10  1  0
 10 11  1  1
 10 12  1  0
 12 13  1  0
 13 14  1  0
 14 15  1  0
  9  3  1  0
 15 13  1  0
 10  7  1  0
  1 16  1  0
  1 17  1  0
  1 18  1  0
  2 19  1  0
  2 20  1  0
  4 21  1  0
  4 22  1  0
  5 23  1  0
  6 24  1  0
  7 25  1  6
  8 26  1  6
  9 27  1  0
  9 28  1  0
 11 29  1  0
 11 30  1  0
 11 31  1  0
 12 32  1  0
 12 33  1  0
 13 34  1  0
 14 35  1  0
 14 36  1  0
 15 37  1  0
 15 38  1  0
M  END
$$$$
