
     RDKit          3D

 28 31  0  0  0  0  0  0  0  0999 V2000
   20.2283  -12.7633  -11.0474 C   0  0  0  0  0  0  0  0  0  0  0  0
   22.7196  -11.2146  -10.9659 Si  0  0  0  0  0  4  0  0  0  0  0  0
   25.5236  -11.4960  -11.2841 N   0  0  0  0  0  0  0  0  0  0  0  0
   21.4033  -12.2990  -10.1110 C   0  0  0  0  0  0  0  0  0  0  0  0
   22.0514  -13.3816   -9.2118 C   0  0  0  0  0  0  0  0  0  0  0  0
   20.2342  -14.1150  -11.8292 C   0  0  0  0  0  0  0  0  0  0  0  0
   21.5162  -14.4676  -12.5814 C   0  0  0  0  0  0  0  0  0  0  0  0
   21.6010  -13.2683   -7.7374 C   0  0  0  0  0  0  0  0  0  0  0  0
   20.7249  -16.5075  -11.4523 C   0  0  0  0  0  0  0  0  0  0  0  0
   25.9647  -11.7582   -9.9079 C   0  0  0  0  0  0  0  0  0  0  0  0
   23.6296  -16.1011  -11.3916 As  0  0  0  0  0  3  0  0  0  0  0  0
   20.1598  -13.6367   -7.3905 C   0  0  0  0  0  0  0  0  0  0  0  0
   19.5742  -13.0109   -6.1050 C   0  0  0  0  0  0  0  0  0  0  0  0
   26.3563  -13.2064   -9.7172 C   0  0  0  0  0  0  0  0  0  0  0  0
   19.8303  -15.3422  -11.0107 C   0  0  0  0  0  0  0  0  0  0  0  0
   21.8567  -15.9301  -12.2936 C   0  0  0  0  0  0  0  0  0  0  0  0
   24.2431  -12.1427  -11.6055 C   0  0  0  0  0  0  0  0  0  0  0  0
   21.3020  -14.6175   -7.0942 C   0  0  0  0  0  0  0  0  0  0  0  0
   18.0620  -12.6358   -5.9231 C   0  0  0  0  0  0  0  0  0  0  0  0
   25.6609  -13.9169   -9.0125 O   0  0  0  0  0  0  0  0  0  0  0  0
   17.7200  -11.8676   -7.2289 C   0  0  0  0  0  0  0  0  0  0  0  0
   28.8711  -13.0763  -10.1459 C   0  0  0  0  0  0  0  0  0  0  0  0
   16.9885  -13.1155   -6.9322 C   0  0  0  0  0  0  0  0  0  0  0  0
   18.6615  -13.9816   -5.4472 C   0  0  0  0  0  0  0  0  0  0  0  0
   27.2478  -14.1174  -11.9092 C   0  0  0  0  0  0  0  0  0  0  0  0
   28.1471  -15.0677  -12.4352 O   0  0  0  0  0  0  0  0  0  0  0  0
   27.5441  -13.8368  -10.4195 C   0  0  0  0  0  0  0  0  0  0  0  0
   29.2046  -11.9467  -11.1276 C   0  0  0  0  0  0  0  0  0  0  0  0
  4  1  1  0
  4  2  1  0
  5  4  1  0
  6  1  1  0
  7  6  1  0
  8  5  1  0
 10  3  1  0
 12  8  1  0
 13 12  1  0
 14 10  1  0
 15  6  1  0
 15  9  1  0
 16  7  1  0
 16  9  1  0
 16 11  1  0
 17  2  1  0
 17  3  1  0
 18  8  1  0
 18 12  1  0
 19 13  1  0
 20 14  2  0
 21 19  1  0
 23 19  1  0
 23 21  1  0
 24 13  1  0
 24 19  1  0
 26 25  1  0
 27 14  1  0
 27 22  1  0
 27 25  1  0
 28 22  1  0
M  END
$$$$
