
     RDKit          2D

 52 60  0  0  0  0  0  0  0  0999 V2000
   -5.9916   -1.2012    0.0000 O   0  0  0  0  0  0  0  0  0  0  0  0
   -4.8426   -0.2370    0.0000 N   0  0  0  0  0  0  0  0  0  0  0  0
   -5.1030    1.2402    0.0000 C   0  0  0  0  0  0  0  0  0  0  0  0
   -5.3635    2.7175    0.0000 C   0  0  0  0  0  0  0  0  0  0  0  0
   -6.8635    2.7175    0.0000 C   0  0  0  0  0  0  0  0  0  0  0  0
   -7.6135    4.0165    0.0000 O   0  0  0  0  0  0  0  0  0  0  0  0
   -6.1135    4.0165    0.0000 C   0  0  0  0  0  0  0  0  0  0  0  0
   -5.3635    5.3155    0.0000 O   0  0  0  0  0  0  0  0  0  0  0  0
   -6.1135    6.6146    0.0000 C   0  0  0  0  0  0  0  0  0  0  0  0
   -6.3740    8.0918    0.0000 C   0  0  0  0  0  0  0  0  0  0  0  0
   -4.9644    7.5787    0.0000 C   0  0  0  0  0  0  0  0  0  0  0  0
   -4.2144    8.8778    0.0000 C   0  0  0  0  0  0  0  0  0  0  0  0
   -2.9154    8.1278    0.0000 C   0  0  0  0  0  0  0  0  0  0  0  0
   -2.1654    9.4268    0.0000 C   0  0  0  0  0  0  0  0  0  0  0  0
   -3.4644   10.1768    0.0000 C   0  0  0  0  0  0  0  0  0  0  0  0
   -3.4330   -0.7500    0.0000 C   0  0  0  0  0  0  0  0  0  0  0  0
   -4.1830   -2.0490    0.0000 C   0  0  0  0  0  0  0  0  0  0  0  0
   -3.4330   -3.3481    0.0000 C   0  0  0  0  0  0  0  0  0  0  0  0
   -1.9330   -3.3481    0.0000 C   0  0  0  0  0  0  0  0  0  0  0  0
   -1.1830   -2.0490    0.0000 C   0  0  0  0  0  0  0  0  0  0  0  0
   -1.9330    0.7500    0.0000 C   0  0  0  0  0  0  0  0  0  0  0  0
   -0.4330    0.7500    0.0000 C   0  0  0  0  0  0  0  0  0  0  0  0
    0.8660    0.0000    0.0000 C   0  0  0  0  0  0  0  0  0  0  0  0
   -0.4330   -0.7500    0.0000 C   0  0  0  0  0  0  0  0  0  0  0  0
   -1.9330   -0.7500    0.0000 C   0  0  0  0  0  0  0  0  0  0  0  0
   -7.4012   -0.6881    0.0000 H   0  0  0  0  0  0  0  0  0  0  0  0
   -3.8698    1.7894    0.0000 H   0  0  0  0  0  0  0  0  0  0  0  0
   -6.5802    0.9798    0.0000 H   0  0  0  0  0  0  0  0  0  0  0  0
   -3.9540    3.2305    0.0000 H   0  0  0  0  0  0  0  0  0  0  0  0
   -7.6135    1.4184    0.0000 H   0  0  0  0  0  0  0  0  0  0  0  0
   -7.5230    6.1015    0.0000 H   0  0  0  0  0  0  0  0  0  0  0  0
   -7.8740    8.0918    0.0000 H   0  0  0  0  0  0  0  0  0  0  0  0
   -6.3034    9.4399    0.0000 H   0  0  0  0  0  0  0  0  0  0  0  0
   -4.2187    6.7790    0.0000 H   0  0  0  0  0  0  0  0  0  0  0  0
   -5.2926    9.6903    0.0000 H   0  0  0  0  0  0  0  0  0  0  0  0
   -1.6164    7.3778    0.0000 H   0  0  0  0  0  0  0  0  0  0  0  0
   -3.3426    7.1212    0.0000 H   0  0  0  0  0  0  0  0  0  0  0  0
   -1.4154   10.7259    0.0000 H   0  0  0  0  0  0  0  0  0  0  0  0
   -0.8664    8.6768    0.0000 H   0  0  0  0  0  0  0  0  0  0  0  0
   -4.7635   10.9268    0.0000 H   0  0  0  0  0  0  0  0  0  0  0  0
   -2.7144   11.4759    0.0000 H   0  0  0  0  0  0  0  0  0  0  0  0
   -2.9944    0.6844    0.0000 H   0  0  0  0  0  0  0  0  0  0  0  0
   -5.3321   -3.0132    0.0000 H   0  0  0  0  0  0  0  0  0  0  0  0
   -5.0676   -1.6177    0.0000 H   0  0  0  0  0  0  0  0  0  0  0  0
   -3.1725   -4.8253    0.0000 H   0  0  0  0  0  0  0  0  0  0  0  0
   -4.8426   -3.8611    0.0000 H   0  0  0  0  0  0  0  0  0  0  0  0
   -0.5235   -3.8611    0.0000 H   0  0  0  0  0  0  0  0  0  0  0  0
   -2.1935   -4.8253    0.0000 H   0  0  0  0  0  0  0  0  0  0  0  0
   -2.7641    1.8138    0.0000 H   0  0  0  0  0  0  0  0  0  0  0  0
   -0.0448    2.1989    0.0000 H   0  0  0  0  0  0  0  0  0  0  0  0
    1.8302    1.1491    0.0000 H   0  0  0  0  0  0  0  0  0  0  0  0
    1.8302   -1.1491    0.0000 H   0  0  0  0  0  0  0  0  0  0  0  0
  1  2  1  0
  2  3  1  0
  3  4  1  0
  4  5  1  0
  5  6  1  0
  6  7  1  0
  7  8  1  0
  8  9  1  0
  9 10  1  0
 10 11  1  0
 11 12  1  0
 12 13  1  0
 13 14  1  0
 14 15  1  0
  2 16  1  0
 16 17  1  0
 17 18  1  0
 18 19  1  0
 19 20  1  0
 20 21  1  0
 21 22  1  0
 22 23  1  0
 23 24  1  0
 24 25  1  0
  7  4  1  0
 11  9  1  0
 15 12  1  0
 25 16  1  0
  7  5  1  0
 24 20  1  0
 25 20  1  0
 25 21  1  0
 24 22  1  0
  1 26  1  0
  3 27  1  0
  3 28  1  0
  4 29  1  0
  5 30  1  0
  9 31  1  0
 10 32  1  0
 10 33  1  0
 11 34  1  0
 12 35  1  0
 13 36  1  0
 13 37  1  0
 14 38  1  0
 14 39  1  0
 15 40  1  0
 15 41  1  0
 16 42  1  0
 17 43  1  0
 17 44  1  0
 18 45  1  0
 18 46  1  0
 19 47  1  0
 19 48  1  0
 21 49  1  0
 22 50  1  0
 23 51  1  0
 23 52  1  0
M  END
$$$$
