
     RDKit          3D

 22 25  0  0  0  0  0  0  0  0999 V2000
   14.4978  -27.4510   -6.6540 C   0  0  0  0  0  0  0  0  0  0  0  0
   12.4475  -26.8647   -7.1950 O   0  0  0  0  0  0  0  0  0  0  0  0
   13.2515  -27.9117   -7.1840 O   0  0  0  0  0  0  0  0  0  0  0  0
   15.6421  -28.4425   -6.3426 C   0  0  0  0  0  0  0  0  0  0  0  0
   17.0336  -27.3966   -6.2824 C   0  0  0  0  0  0  0  0  0  0  0  0
   15.2516  -29.7595   -5.5497 O   0  0  0  0  0  0  0  0  0  0  0  0
   17.2661  -26.2616   -7.5932 C   0  0  0  0  0  0  0  0  0  0  0  0
   18.7657  -25.5560   -7.5555 C   0  0  0  0  0  0  0  0  0  0  0  0
   19.5276  -25.2734   -6.2102 C   0  0  0  0  0  0  0  0  0  0  0  0
   19.1214  -26.4621   -8.7888 C   0  0  0  0  0  0  0  0  0  0  0  0
   17.8568  -27.2406   -8.6371 N   0  0  0  0  0  0  0  0  0  0  0  0
   19.0992  -24.1316   -8.1445 C   0  0  0  0  0  0  0  0  0  0  0  0
   18.1973  -28.5168   -7.9336 C   0  0  0  0  0  0  0  0  0  0  0  0
   20.7848  -24.4208   -6.4326 C   0  0  0  0  0  0  0  0  0  0  0  0
   14.1224  -30.3567   -6.1688 C   0  0  0  0  0  0  0  0  0  0  0  0
   14.1914  -30.2903   -7.5808 O   0  0  0  0  0  0  0  0  0  0  0  0
   21.5701  -24.9494   -7.6127 C   0  0  0  0  0  0  0  0  0  0  0  0
   12.7286  -30.0701   -5.3857 C   0  0  0  0  0  0  0  0  0  0  0  0
   20.5852  -23.7923   -7.8172 C   0  0  0  0  0  0  0  0  0  0  0  0
   18.2471  -28.3163   -6.4498 C   0  0  0  0  0  0  0  0  0  0  0  0
   12.3178  -28.6091   -5.0018 C   0  0  0  0  0  0  0  0  0  0  0  0
   12.0953  -28.1427   -3.6605 C   0  0  0  0  0  0  0  0  0  0  0  0
  3  1  1  0
  3  2  1  0
  4  1  1  0
  5  4  1  0
  6  4  1  0
  7  5  1  0
  8  7  1  0
  9  8  1  0
 10  8  1  0
 11  7  1  0
 11 10  1  0
 12  8  1  0
 13 11  1  0
 14  9  1  0
 15  6  1  0
 16 15  1  0
 17 14  1  0
 18 15  1  0
 19 12  1  0
 19 14  1  0
 19 17  1  0
 20  5  1  0
 20 13  1  0
 21 18  1  0
 22 21  2  0
M  END
$$$$
