
     RDKit          2D

 58 60  0  0  0  0  0  0  0  0999 V2000
    1.9058    4.7395    0.0000 C   0  0  0  0  0  0  0  0  0  0  0  0
    1.6453    3.2623    0.0000 C   0  0  0  0  0  0  0  0  0  0  0  0
    2.7944    2.2981    0.0000 C   0  0  0  0  0  0  0  0  0  0  0  0
    3.9435    1.3340    0.0000 C   0  0  0  0  0  0  0  0  0  0  0  0
    5.0925    0.3698    0.0000 C   0  0  0  0  0  0  0  0  0  0  0  0
    6.2416   -0.5944    0.0000 C   0  0  0  0  0  0  0  0  0  0  0  0
    7.3907   -1.5586    0.0000 C   0  0  0  0  0  0  0  0  0  0  0  0
    8.5397   -2.5228    0.0000 C   0  0  0  0  0  0  0  0  0  0  0  0
    6.4265   -2.7077    0.0000 N   0  0  0  0  0  0  0  0  0  0  0  0
    8.3548   -0.4095    0.0000 C   0  0  0  0  0  0  0  0  0  0  0  0
    9.3190    0.7395    0.0000 N   0  0  0  0  0  0  0  0  0  0  0  0
   10.7962    0.4791    0.0000 C   0  0  0  0  0  0  0  0  0  0  0  0
   12.2734    0.2186    0.0000 C   0  0  0  0  0  0  0  0  0  0  0  0
   13.7507   -0.0419    0.0000 C   0  0  0  0  0  0  0  0  0  0  0  0
   15.2279   -0.3023    0.0000 C   0  0  0  0  0  0  0  0  0  0  0  0
    1.8302    1.1491    0.0000 C   0  0  0  0  0  0  0  0  0  0  0  0
    0.8660    0.0000    0.0000 C   0  0  0  0  0  0  0  0  0  0  0  0
   -0.4330    0.7500    0.0000 C   0  0  0  0  0  0  0  0  0  0  0  0
   -1.7321    0.0000    0.0000 C   0  0  0  0  0  0  0  0  0  0  0  0
   -2.4821   -1.2990    0.0000 C   0  0  0  0  0  0  0  0  0  0  0  0
   -1.1830   -2.0490    0.0000 C   0  0  0  0  0  0  0  0  0  0  0  0
   -0.4330   -0.7500    0.0000 C   0  0  0  0  0  0  0  0  0  0  0  0
    0.7567    5.7037    0.0000 H   0  0  0  0  0  0  0  0  0  0  0  0
    3.3153    5.2526    0.0000 H   0  0  0  0  0  0  0  0  0  0  0  0
    0.1535    3.1056    0.0000 H   0  0  0  0  0  0  0  0  0  0  0  0
    3.7586    3.4472    0.0000 H   0  0  0  0  0  0  0  0  0  0  0  0
    4.9076    2.4830    0.0000 H   0  0  0  0  0  0  0  0  0  0  0  0
    3.4611    0.5911    0.0000 H   0  0  0  0  0  0  0  0  0  0  0  0
    6.0567    1.5188    0.0000 H   0  0  0  0  0  0  0  0  0  0  0  0
    4.1283   -0.7793    0.0000 H   0  0  0  0  0  0  0  0  0  0  0  0
    5.1445   -1.6174    0.0000 H   0  0  0  0  0  0  0  0  0  0  0  0
    6.7240    0.1484    0.0000 H   0  0  0  0  0  0  0  0  0  0  0  0
    9.6888   -3.4870    0.0000 H   0  0  0  0  0  0  0  0  0  0  0  0
    9.1875   -1.9187    0.0000 H   0  0  0  0  0  0  0  0  0  0  0  0
    7.7228   -3.7808    0.0000 H   0  0  0  0  0  0  0  0  0  0  0  0
    6.7639   -4.1692    0.0000 H   0  0  0  0  0  0  0  0  0  0  0  0
    4.9285   -2.6292    0.0000 H   0  0  0  0  0  0  0  0  0  0  0  0
    9.0977   -0.8919    0.0000 H   0  0  0  0  0  0  0  0  0  0  0  0
    7.7508    0.2383    0.0000 H   0  0  0  0  0  0  0  0  0  0  0  0
    8.8060    2.1491    0.0000 H   0  0  0  0  0  0  0  0  0  0  0  0
   10.5358   -0.9981    0.0000 H   0  0  0  0  0  0  0  0  0  0  0  0
   11.0567    1.9563    0.0000 H   0  0  0  0  0  0  0  0  0  0  0  0
   12.0130   -1.2586    0.0000 H   0  0  0  0  0  0  0  0  0  0  0  0
   12.5339    1.6958    0.0000 H   0  0  0  0  0  0  0  0  0  0  0  0
   14.0111    1.4353    0.0000 H   0  0  0  0  0  0  0  0  0  0  0  0
   13.4902   -1.5191    0.0000 H   0  0  0  0  0  0  0  0  0  0  0  0
   16.7051   -0.5628    0.0000 H   0  0  0  0  0  0  0  0  0  0  0  0
   14.9674   -1.7796    0.0000 H   0  0  0  0  0  0  0  0  0  0  0  0
   15.4883    1.1749    0.0000 H   0  0  0  0  0  0  0  0  0  0  0  0
    0.5722    1.9660    0.0000 H   0  0  0  0  0  0  0  0  0  0  0  0
    2.4343    0.5013    0.0000 H   0  0  0  0  0  0  0  0  0  0  0  0
    1.8302   -1.1491    0.0000 H   0  0  0  0  0  0  0  0  0  0  0  0
   -0.6159    2.2388    0.0000 H   0  0  0  0  0  0  0  0  0  0  0  0
   -2.7927    1.0607    0.0000 H   0  0  0  0  0  0  0  0  0  0  0  0
   -3.2321   -2.5981    0.0000 H   0  0  0  0  0  0  0  0  0  0  0  0
   -3.7811   -0.5490    0.0000 H   0  0  0  0  0  0  0  0  0  0  0  0
    0.1160   -2.7990    0.0000 H   0  0  0  0  0  0  0  0  0  0  0  0
   -1.9330   -3.3481    0.0000 H   0  0  0  0  0  0  0  0  0  0  0  0
  1  2  2  3
  2  3  1  0
  3  4  1  0
  4  5  1  0
  5  6  1  0
  6  7  1  0
  7  8  1  0
  7  9  1  1
  7 10  1  0
 10 11  1  0
 11 12  1  0
 12 13  1  0
 13 14  1  0
 14 15  1  0
  3 16  1  0
 16 17  1  0
 17 18  1  0
 18 19  1  0
 19 20  1  0
 20 21  1  0
 22 21  1  1
 22 17  1  0
 22 18  1  0
 22 19  1  0
  1 23  1  0
  1 24  1  0
  2 25  1  0
  3 26  1  6
  4 27  1  0
  4 28  1  0
  5 29  1  0
  5 30  1  0
  6 31  1  0
  6 32  1  0
  8 33  1  0
  8 34  1  0
  8 35  1  0
  9 36  1  0
  9 37  1  0
 10 38  1  0
 10 39  1  0
 11 40  1  0
 12 41  1  0
 12 42  1  0
 13 43  1  0
 13 44  1  0
 14 45  1  0
 14 46  1  0
 15 47  1  0
 15 48  1  0
 15 49  1  0
 16 50  1  0
 16 51  1  0
 17 52  1  6
 18 53  1  6
 19 54  1  1
 20 55  1  0
 20 56  1  0
 21 57  1  0
 21 58  1  0
M  END
$$$$
