
     RDKit          2D

 79 89  0  0  0  0  0  0  0  0999 V2000
    4.2345   -1.6030    0.0000 C   0  0  0  0  0  0  0  0  0  0  0  0
    4.0777   -0.1113    0.0000 C   0  0  0  0  0  0  0  0  0  0  0  0
    5.2912    0.7704    0.0000 C   0  0  0  0  0  0  0  0  0  0  0  0
    6.5047    1.6521    0.0000 C   0  0  0  0  0  0  0  0  0  0  0  0
    7.3864    0.4386    0.0000 C   0  0  0  0  0  0  0  0  0  0  0  0
    8.2681   -0.7749    0.0000 O   0  0  0  0  0  0  0  0  0  0  0  0
    8.5999    1.3203    0.0000 O   0  0  0  0  0  0  0  0  0  0  0  0
    7.7182    2.5338    0.0000 C   0  0  0  0  0  0  0  0  0  0  0  0
    6.8366    3.7473    0.0000 C   0  0  0  0  0  0  0  0  0  0  0  0
    5.9549    4.9608    0.0000 C   0  0  0  0  0  0  0  0  0  0  0  0
    7.1684    5.8425    0.0000 C   0  0  0  0  0  0  0  0  0  0  0  0
    8.6499    5.6079    0.0000 C   0  0  0  0  0  0  0  0  0  0  0  0
    6.2867    7.0560    0.0000 C   0  0  0  0  0  0  0  0  0  0  0  0
    5.8232    8.4826    0.0000 C   0  0  0  0  0  0  0  0  0  0  0  0
    4.3232    8.4826    0.0000 C   0  0  0  0  0  0  0  0  0  0  0  0
    3.8597    7.0560    0.0000 C   0  0  0  0  0  0  0  0  0  0  0  0
    5.0732    6.1744    0.0000 C   0  0  0  0  0  0  0  0  0  0  0  0
    2.7073    0.4989    0.0000 O   0  0  0  0  0  0  0  0  0  0  0  0
    2.5506    1.9906    0.0000 C   0  0  0  0  0  0  0  0  0  0  0  0
    4.0423    2.1474    0.0000 N   0  0  0  0  0  0  0  0  0  0  0  0
    4.6524    3.5177    0.0000 C   0  0  0  0  0  0  0  0  0  0  0  0
    1.0588    1.8338    0.0000 C   0  0  0  0  0  0  0  0  0  0  0  0
    0.4487    0.4635    0.0000 C   0  0  0  0  0  0  0  0  0  0  0  0
   -0.4330   -0.7500    0.0000 C   0  0  0  0  0  0  0  0  0  0  0  0
   -1.8596   -1.2135    0.0000 C   0  0  0  0  0  0  0  0  0  0  0  0
   -2.7413    0.0000    0.0000 C   0  0  0  0  0  0  0  0  0  0  0  0
   -1.8596    1.2135    0.0000 C   0  0  0  0  0  0  0  0  0  0  0  0
   -0.4330    0.7500    0.0000 C   0  0  0  0  0  0  0  0  0  0  0  0
   -0.5340    0.0000    0.0000 C   0  0  0  0  0  0  0  0  0  0  0  0
   -0.4330    1.6771    0.0000 C   0  0  0  0  0  0  0  0  0  0  0  0
    0.1771    3.0474    0.0000 C   0  0  0  0  0  0  0  0  0  0  0  0
   -0.7046    4.2609    0.0000 C   0  0  0  0  0  0  0  0  0  0  0  0
   -0.6425    4.2674    0.0000 C   0  0  0  0  0  0  0  0  0  0  0  0
    0.7251    4.4112    0.0000 C   0  0  0  0  0  0  0  0  0  0  0  0
    0.7872    4.4177    0.0000 C   0  0  0  0  0  0  0  0  0  0  0  0
   -0.0945    5.6312    0.0000 N   0  0  0  0  0  0  0  0  0  0  0  0
   -0.2513    7.1230    0.0000 C   0  0  0  0  0  0  0  0  0  0  0  0
    5.6048   -2.2131    0.0000 H   0  0  0  0  0  0  0  0  0  0  0  0
    3.0209   -2.4847    0.0000 H   0  0  0  0  0  0  0  0  0  0  0  0
    6.0184   -0.5415    0.0000 H   0  0  0  0  0  0  0  0  0  0  0  0
    4.7294    2.1612    0.0000 H   0  0  0  0  0  0  0  0  0  0  0  0
    5.7775    2.9641    0.0000 H   0  0  0  0  0  0  0  0  0  0  0  0
    6.2894   -0.5844    0.0000 H   0  0  0  0  0  0  0  0  0  0  0  0
    9.7599   -0.6182    0.0000 H   0  0  0  0  0  0  0  0  0  0  0  0
    9.0302    3.2610    0.0000 H   0  0  0  0  0  0  0  0  0  0  0  0
    8.1485    4.4745    0.0000 H   0  0  0  0  0  0  0  0  0  0  0  0
    7.9336    4.7703    0.0000 H   0  0  0  0  0  0  0  0  0  0  0  0
    4.5641    4.3990    0.0000 H   0  0  0  0  0  0  0  0  0  0  0  0
    9.5939    6.7736    0.0000 H   0  0  0  0  0  0  0  0  0  0  0  0
    9.3542    4.2835    0.0000 H   0  0  0  0  0  0  0  0  0  0  0  0
    7.6232    7.7370    0.0000 H   0  0  0  0  0  0  0  0  0  0  0  0
    7.2904    8.7945    0.0000 H   0  0  0  0  0  0  0  0  0  0  0  0
    5.6664    9.9744    0.0000 H   0  0  0  0  0  0  0  0  0  0  0  0
    4.4800    9.9744    0.0000 H   0  0  0  0  0  0  0  0  0  0  0  0
    2.8560    8.7945    0.0000 H   0  0  0  0  0  0  0  0  0  0  0  0
    2.4894    7.6661    0.0000 H   0  0  0  0  0  0  0  0  0  0  0  0
    3.1097    5.7570    0.0000 H   0  0  0  0  0  0  0  0  0  0  0  0
    4.0125    5.1137    0.0000 H   0  0  0  0  0  0  0  0  0  0  0  0
    2.3938    3.4824    0.0000 H   0  0  0  0  0  0  0  0  0  0  0  0
    5.1915    1.1833    0.0000 H   0  0  0  0  0  0  0  0  0  0  0  0
    4.9128    4.9950    0.0000 H   0  0  0  0  0  0  0  0  0  0  0  0
    6.0869    3.0792    0.0000 H   0  0  0  0  0  0  0  0  0  0  0  0
    3.2821    4.1279    0.0000 H   0  0  0  0  0  0  0  0  0  0  0  0
    1.6466   -0.4392    0.0000 H   0  0  0  0  0  0  0  0  0  0  0  0
   -1.2495   -2.5838    0.0000 H   0  0  0  0  0  0  0  0  0  0  0  0
   -3.1586   -1.9635    0.0000 H   0  0  0  0  0  0  0  0  0  0  0  0
   -3.8560   -1.0037    0.0000 H   0  0  0  0  0  0  0  0  0  0  0  0
   -3.8560    1.0037    0.0000 H   0  0  0  0  0  0  0  0  0  0  0  0
   -2.3231    2.6401    0.0000 H   0  0  0  0  0  0  0  0  0  0  0  0
    0.4905    1.9320    0.0000 H   0  0  0  0  0  0  0  0  0  0  0  0
    1.8302    1.1491    0.0000 H   0  0  0  0  0  0  0  0  0  0  0  0
    1.9631   -1.0230    0.0000 H   0  0  0  0  0  0  0  0  0  0  0  0
   -1.5425    7.0891    0.0000 H   0  0  0  0  0  0  0  0  0  0  0  0
   -2.3532    5.5959    0.0000 H   0  0  0  0  0  0  0  0  0  0  0  0
    2.1222    6.0663    0.0000 H   0  0  0  0  0  0  0  0  0  0  0  0
    1.0188    7.3583    0.0000 H   0  0  0  0  0  0  0  0  0  0  0  0
   -0.4081    8.6148    0.0000 H   0  0  0  0  0  0  0  0  0  0  0  0
    1.2103    7.4605    0.0000 H   0  0  0  0  0  0  0  0  0  0  0  0
   -1.7510    7.1492    0.0000 H   0  0  0  0  0  0  0  0  0  0  0  0
  1  2  2  3
  2  3  1  0
  3  4  1  0
  4  5  1  0
  5  6  1  0
  5  7  1  0
  7  8  1  0
  8  9  1  0
  9 10  1  0
 10 11  1  0
 11 12  2  3
 11 13  1  0
 13 14  1  0
 14 15  1  0
 15 16  1  0
 16 17  1  0
  2 18  1  0
 18 19  1  0
 19 20  1  0
 20 21  1  0
 19 22  1  0
 22 23  1  0
 23 24  1  0
 24 25  1  0
 25 26  1  0
 26 27  1  0
 27 28  1  0
 28 29  1  0
 27 30  1  0
 30 31  1  0
 31 32  1  0
 32 33  1  0
 33 34  1  0
 34 35  1  0
 35 36  1  0
 36 37  1  0
  8  4  1  0
 17 10  1  0
 30 22  1  0
 35 31  1  0
 17 13  1  0
 31 22  1  0
 35 32  1  0
 30 23  1  0
 36 32  1  0
 28 24  1  0
 29 24  1  0
  1 38  1  0
  1 39  1  0
  3 40  1  0
  3 41  1  0
  4 42  1  0
  5 43  1  0
  6 44  1  0
  8 45  1  0
  9 46  1  0
  9 47  1  0
 10 48  1  0
 12 49  1  0
 12 50  1  0
 13 51  1  0
 14 52  1  0
 14 53  1  0
 15 54  1  0
 15 55  1  0
 16 56  1  0
 16 57  1  0
 17 58  1  0
 19 59  1  0
 20 60  1  0
 21 61  1  0
 21 62  1  0
 21 63  1  0
 23 64  1  0
 25 65  1  0
 25 66  1  0
 26 67  1  0
 26 68  1  0
 27 69  1  0
 28 70  1  0
 29 71  1  0
 29 72  1  0
 33 73  1  0
 33 74  1  0
 34 75  1  0
 34 76  1  0
 37 77  1  0
 37 78  1  0
 37 79  1  0
M  END
$$$$
