
     RDKit          2D

 61 62  0  0  0  0  0  0  0  0999 V2000
    4.5000   -2.5981    0.0000 C   0  0  0  0  0  0  0  0  0  0  0  0
    5.2500   -1.2990    0.0000 Al  0  0  0  0  0  3  0  0  0  0  0  0
    4.5000    0.0000    0.0000 C   0  0  0  0  0  0  0  0  0  0  0  0
    5.2500    1.2990    0.0000 C   0  0  0  0  0  0  0  0  0  0  0  0
    3.0000    0.0000    0.0000 C   0  0  0  0  0  0  0  0  0  0  0  0
    1.5000    0.0000    0.0000 C   0  0  0  0  0  0  0  0  0  0  0  0
    0.7500   -1.2990    0.0000 C   0  0  0  0  0  0  0  0  0  0  0  0
   -0.7500   -1.2990    0.0000 C   0  0  0  0  0  0  0  0  0  0  0  0
   -1.5000    0.0000    0.0000 C   0  0  0  0  0  0  0  0  0  0  0  0
   -3.0000    0.0000    0.0000 C   0  0  0  0  0  0  0  0  0  0  0  0
   -4.5000    0.0000    0.0000 C   0  0  0  0  0  0  0  0  0  0  0  0
   -4.5000   -1.5000    0.0000 O   0  0  0  0  0  0  0  0  0  0  0  0
   -6.0000    0.0000    0.0000 C   0  0  0  0  0  0  0  0  0  0  0  0
   -6.0000   -1.5000    0.0000 N   0  0  0  0  0  0  0  0  0  0  0  0
   -7.5000    0.0000    0.0000 C   0  0  0  0  0  0  0  0  0  0  0  0
   -8.2500    1.2990    0.0000 C   0  0  0  0  0  0  0  0  0  0  0  0
   -9.7500    1.2990    0.0000 C   0  0  0  0  0  0  0  0  0  0  0  0
  -11.2500    1.2990    0.0000 B   0  0  0  0  0  0  0  0  0  0  0  0
  -12.0000    2.5981    0.0000 O   0  0  0  0  0  0  0  0  0  0  0  0
   -9.7500   -0.2010    0.0000 C   0  0  0  0  0  0  0  0  0  0  0  0
   -9.4381   -1.6682    0.0000 C   0  0  0  0  0  0  0  0  0  0  0  0
  -10.7372   -2.4182    0.0000 C   0  0  0  0  0  0  0  0  0  0  0  0
  -11.8519   -1.4145    0.0000 C   0  0  0  0  0  0  0  0  0  0  0  0
  -11.2418   -0.0442    0.0000 C   0  0  0  0  0  0  0  0  0  0  0  0
   -0.7500    1.2990    0.0000 C   0  0  0  0  0  0  0  0  0  0  0  0
    0.7500    1.2990    0.0000 C   0  0  0  0  0  0  0  0  0  0  0  0
    3.7500   -3.8971    0.0000 H   0  0  0  0  0  0  0  0  0  0  0  0
    5.7990   -3.3481    0.0000 H   0  0  0  0  0  0  0  0  0  0  0  0
    3.2010   -1.8481    0.0000 H   0  0  0  0  0  0  0  0  0  0  0  0
    6.7500   -1.2990    0.0000 H   0  0  0  0  0  0  0  0  0  0  0  0
    6.0000    2.5981    0.0000 H   0  0  0  0  0  0  0  0  0  0  0  0
    6.5490    0.5490    0.0000 H   0  0  0  0  0  0  0  0  0  0  0  0
    3.9510    2.0490    0.0000 H   0  0  0  0  0  0  0  0  0  0  0  0
    2.1595   -1.8121    0.0000 H   0  0  0  0  0  0  0  0  0  0  0  0
    0.4895   -2.7762    0.0000 H   0  0  0  0  0  0  0  0  0  0  0  0
   -1.5000   -2.5981    0.0000 H   0  0  0  0  0  0  0  0  0  0  0  0
   -3.1828    1.4888    0.0000 H   0  0  0  0  0  0  0  0  0  0  0  0
   -2.8172   -1.4888    0.0000 H   0  0  0  0  0  0  0  0  0  0  0  0
   -4.5000    1.5000    0.0000 H   0  0  0  0  0  0  0  0  0  0  0  0
   -3.3021   -2.4028    0.0000 H   0  0  0  0  0  0  0  0  0  0  0  0
   -6.0000    1.5000    0.0000 H   0  0  0  0  0  0  0  0  0  0  0  0
   -7.2990   -2.2500    0.0000 H   0  0  0  0  0  0  0  0  0  0  0  0
   -4.9210   -2.5420    0.0000 H   0  0  0  0  0  0  0  0  0  0  0  0
   -7.8115   -0.7338    0.0000 H   0  0  0  0  0  0  0  0  0  0  0  0
   -7.5000    2.5981    0.0000 H   0  0  0  0  0  0  0  0  0  0  0  0
   -9.7500    2.7990    0.0000 H   0  0  0  0  0  0  0  0  0  0  0  0
  -12.4158    0.3552    0.0000 H   0  0  0  0  0  0  0  0  0  0  0  0
  -13.5000    2.5981    0.0000 H   0  0  0  0  0  0  0  0  0  0  0  0
   -8.6672   -0.3532    0.0000 H   0  0  0  0  0  0  0  0  0  0  0  0
   -8.3647   -1.4596    0.0000 H   0  0  0  0  0  0  0  0  0  0  0  0
   -8.8280   -3.0385    0.0000 H   0  0  0  0  0  0  0  0  0  0  0  0
   -9.8555   -3.6317    0.0000 H   0  0  0  0  0  0  0  0  0  0  0  0
  -11.8519   -3.4219    0.0000 H   0  0  0  0  0  0  0  0  0  0  0  0
  -12.7336   -2.6280    0.0000 H   0  0  0  0  0  0  0  0  0  0  0  0
  -13.1509   -0.6645    0.0000 H   0  0  0  0  0  0  0  0  0  0  0  0
  -12.7142    0.2420    0.0000 H   0  0  0  0  0  0  0  0  0  0  0  0
  -11.2942    1.4549    0.0000 H   0  0  0  0  0  0  0  0  0  0  0  0
   -2.0865    1.9801    0.0000 H   0  0  0  0  0  0  0  0  0  0  0  0
   -0.4895    2.7762    0.0000 H   0  0  0  0  0  0  0  0  0  0  0  0
    0.4895    2.7762    0.0000 H   0  0  0  0  0  0  0  0  0  0  0  0
    2.1595    1.8121    0.0000 H   0  0  0  0  0  0  0  0  0  0  0  0
  1  2  1  0
  2  3  1  0
  3  4  1  0
  3  5  2  0
  5  6  2  0
  6  7  1  0
  7  8  1  0
  8  9  2  0
  9 10  1  0
 10 11  1  0
 11 12  1  0
 11 13  1  0
 13 14  1  0
 13 15  1  0
 15 16  2  3
 16 17  1  0
 17 18  1  0
 18 19  1  0
 17 20  1  0
 20 21  1  0
 21 22  1  0
 22 23  1  0
 23 24  1  0
  9 25  1  0
 25 26  1  0
 26  6  1  0
 24 20  1  0
  1 27  1  0
  1 28  1  0
  1 29  1  0
  2 30  1  0
  4 31  1  0
  4 32  1  0
  4 33  1  0
  7 34  1  0
  7 35  1  0
  8 36  1  0
 10 37  1  0
 10 38  1  0
 11 39  1  1
 12 40  1  0
 13 41  1  6
 14 42  1  0
 14 43  1  0
 15 44  1  0
 16 45  1  0
 17 46  1  6
 18 47  1  0
 19 48  1  0
 20 49  1  0
 21 50  1  0
 21 51  1  0
 22 52  1  0
 22 53  1  0
 23 54  1  0
 23 55  1  0
 24 56  1  0
 24 57  1  0
 25 58  1  0
 25 59  1  0
 26 60  1  0
 26 61  1  0
M  END
$$$$
