
     RDKit          2D

 46 46  0  0  0  0  0  0  0  0999 V2000
    9.5236   -1.3139    0.0000 C   0  0  0  0  0  0  0  0  0  0  0  0
    8.0970   -0.8504    0.0000 C   0  0  0  0  0  0  0  0  0  0  0  0
    6.6704   -0.3869    0.0000 C   0  0  0  0  0  0  0  0  0  0  0  0
    5.2439    0.0766    0.0000 C   0  0  0  0  0  0  0  0  0  0  0  0
    3.8173    0.5402    0.0000 C   0  0  0  0  0  0  0  0  0  0  0  0
    2.3907    1.0037    0.0000 N   0  0  0  0  0  0  0  0  0  0  0  0
    1.2760    0.0000    0.0000 C   0  0  0  0  0  0  0  0  0  0  0  0
    0.3943    1.2135    0.0000 C   0  0  0  0  0  0  0  0  0  0  0  0
   -1.0323    0.7500    0.0000 C   0  0  0  0  0  0  0  0  0  0  0  0
   -1.0323   -0.7500    0.0000 O   0  0  0  0  0  0  0  0  0  0  0  0
    0.3943   -1.2135    0.0000 C   0  0  0  0  0  0  0  0  0  0  0  0
    5.7074    1.5032    0.0000 O   0  0  0  0  0  0  0  0  0  0  0  0
    7.1746    1.8151    0.0000 C   0  0  0  0  0  0  0  0  0  0  0  0
    8.6418    2.1270    0.0000 C   0  0  0  0  0  0  0  0  0  0  0  0
   10.1091    2.4388    0.0000 C   0  0  0  0  0  0  0  0  0  0  0  0
    8.3300    3.5942    0.0000 N   0  0  0  0  0  0  0  0  0  0  0  0
    8.9537    0.6597    0.0000 O   0  0  0  0  0  0  0  0  0  0  0  0
    7.6335   -2.2770    0.0000 O   0  0  0  0  0  0  0  0  0  0  0  0
    8.6372   -3.3917    0.0000 C   0  0  0  0  0  0  0  0  0  0  0  0
    8.1737   -4.8183    0.0000 O   0  0  0  0  0  0  0  0  0  0  0  0
   10.9502   -1.7775    0.0000 H   0  0  0  0  0  0  0  0  0  0  0  0
   10.1576    0.0455    0.0000 H   0  0  0  0  0  0  0  0  0  0  0  0
    9.4191   -2.8103    0.0000 H   0  0  0  0  0  0  0  0  0  0  0  0
    8.5195   -0.1744    0.0000 H   0  0  0  0  0  0  0  0  0  0  0  0
    6.2069   -1.8135    0.0000 H   0  0  0  0  0  0  0  0  0  0  0  0
    7.6145    0.7788    0.0000 H   0  0  0  0  0  0  0  0  0  0  0  0
    4.7803   -1.3499    0.0000 H   0  0  0  0  0  0  0  0  0  0  0  0
    3.3538   -0.8864    0.0000 H   0  0  0  0  0  0  0  0  0  0  0  0
    4.2808    1.9668    0.0000 H   0  0  0  0  0  0  0  0  0  0  0  0
    2.2600    2.4980    0.0000 H   0  0  0  0  0  0  0  0  0  0  0  0
    2.3907   -1.0037    0.0000 H   0  0  0  0  0  0  0  0  0  0  0  0
   -0.2158    2.5838    0.0000 H   0  0  0  0  0  0  0  0  0  0  0  0
    1.5922    2.1163    0.0000 H   0  0  0  0  0  0  0  0  0  0  0  0
   -2.5241    0.5932    0.0000 H   0  0  0  0  0  0  0  0  0  0  0  0
   -1.3442    2.2172    0.0000 H   0  0  0  0  0  0  0  0  0  0  0  0
    1.6933   -1.9635    0.0000 H   0  0  0  0  0  0  0  0  0  0  0  0
   -0.2158   -2.5838    0.0000 H   0  0  0  0  0  0  0  0  0  0  0  0
    7.6630    0.3968    0.0000 H   0  0  0  0  0  0  0  0  0  0  0  0
    6.6862    3.2334    0.0000 H   0  0  0  0  0  0  0  0  0  0  0  0
   11.5763    2.7507    0.0000 H   0  0  0  0  0  0  0  0  0  0  0  0
    9.9784    3.9331    0.0000 H   0  0  0  0  0  0  0  0  0  0  0  0
   10.5974    1.0206    0.0000 H   0  0  0  0  0  0  0  0  0  0  0  0
    9.3140    4.7263    0.0000 H   0  0  0  0  0  0  0  0  0  0  0  0
    6.9705    4.2282    0.0000 H   0  0  0  0  0  0  0  0  0  0  0  0
   10.3803    0.1962    0.0000 H   0  0  0  0  0  0  0  0  0  0  0  0
   10.1044   -3.0798    0.0000 H   0  0  0  0  0  0  0  0  0  0  0  0
  1  2  1  0
  2  3  1  0
  3  4  1  0
  4  5  1  0
  5  6  1  0
  6  7  1  0
  7  8  1  0
  8  9  1  0
  9 10  1  0
 10 11  1  0
  4 12  1  0
 12 13  1  0
 13 14  1  0
 14 15  1  0
 14 16  1  0
 14 17  1  0
  2 18  1  0
 18 19  1  0
 19 20  2  0
 11  7  1  0
  1 21  1  0
  1 22  1  0
  1 23  1  0
  2 24  1  0
  3 25  1  0
  3 26  1  0
  4 27  1  0
  5 28  1  0
  5 29  1  0
  6 30  1  0
  7 31  1  0
  8 32  1  0
  8 33  1  0
  9 34  1  0
  9 35  1  0
 11 36  1  0
 11 37  1  0
 13 38  1  0
 13 39  1  0
 15 40  1  0
 15 41  1  0
 15 42  1  0
 16 43  1  0
 16 44  1  0
 17 45  1  0
 19 46  1  0
M  END
$$$$
