
     RDKit          2D

102110  0  0  0  0  0  0  0  0999 V2000
   -5.3333    3.8697    0.0000 C   0  0  0  0  0  0  0  0  0  0  0  0
   -3.9370    3.3217    0.0000 C   0  0  0  0  0  0  0  0  0  0  0  0
   -3.7134    1.8384    0.0000 C   0  0  0  0  0  0  0  0  0  0  0  0
   -4.9528    0.9935    0.0000 C   0  0  0  0  0  0  0  0  0  0  0  0
   -5.0649   -0.5023    0.0000 C   0  0  0  0  0  0  0  0  0  0  0  0
   -3.9653   -1.5226    0.0000 C   0  0  0  0  0  0  0  0  0  0  0  0
   -5.2047   -2.3676    0.0000 O   0  0  0  0  0  0  0  0  0  0  0  0
   -5.0926   -3.8634    0.0000 C   0  0  0  0  0  0  0  0  0  0  0  0
   -2.4821   -1.2990    0.0000 C   0  0  0  0  0  0  0  0  0  0  0  0
   -1.1830   -2.0490    0.0000 C   0  0  0  0  0  0  0  0  0  0  0  0
   -0.7948   -3.4979    0.0000 C   0  0  0  0  0  0  0  0  0  0  0  0
   -0.4066   -4.9468    0.0000 C   0  0  0  0  0  0  0  0  0  0  0  0
   -0.0183   -6.3957    0.0000 C   0  0  0  0  0  0  0  0  0  0  0  0
    0.3699   -7.8446    0.0000 C   0  0  0  0  0  0  0  0  0  0  0  0
    0.7581   -9.2935    0.0000 C   0  0  0  0  0  0  0  0  0  0  0  0
   -0.6013   -9.9274    0.0000 C   0  0  0  0  0  0  0  0  0  0  0  0
    1.6185  -10.5222    0.0000 C   0  0  0  0  0  0  0  0  0  0  0  0
    2.2524   -9.1627    0.0000 C   0  0  0  0  0  0  0  0  0  0  0  0
   -2.2437   -3.8862    0.0000 C   0  0  0  0  0  0  0  0  0  0  0  0
   -3.4724   -4.7465    0.0000 C   0  0  0  0  0  0  0  0  0  0  0  0
   -2.1129   -5.3804    0.0000 N   0  0  0  0  0  0  0  0  0  0  0  0
   -1.4088   -6.7049    0.0000 F   0  0  0  0  0  0  0  0  0  0  0  0
   -0.0176   -1.1472    0.0000 C   0  0  0  0  0  0  0  0  0  0  0  0
    1.5392   -2.7007    0.0000 C   0  0  0  0  0  0  0  0  0  0  0  0
    1.1824   -0.4700    0.0000 C   0  0  0  0  0  0  0  0  0  0  0  0
    1.4153    0.4657    0.0000 C   0  0  0  0  0  0  0  0  0  0  0  0
    3.4197   -0.1572    0.0000 O   0  0  0  0  0  0  0  0  0  0  0  0
    3.1491    1.6489    0.0000 C   0  0  0  0  0  0  0  0  0  0  0  0
    4.1906    2.7283    0.0000 O   0  0  0  0  0  0  0  0  0  0  0  0
    5.6462    2.3661    0.0000 O   0  0  0  0  0  0  0  0  0  0  0  0
    6.6878    3.4455    0.0000 C   0  0  0  0  0  0  0  0  0  0  0  0
    0.9183    1.2921    0.0000 C   0  0  0  0  0  0  0  0  0  0  0  0
   -0.1211    2.2172    0.0000 C   0  0  0  0  0  0  0  0  0  0  0  0
   -1.1742    3.2854    0.0000 C   0  0  0  0  0  0  0  0  0  0  0  0
   -2.6659    3.1281    0.0000 C   0  0  0  0  0  0  0  0  0  0  0  0
    1.3706    2.3740    0.0000 N   0  0  0  0  0  0  0  0  0  0  0  0
    1.9807    1.0037    0.0000 C   0  0  0  0  0  0  0  0  0  0  0  0
    3.2798    1.7537    0.0000 C   0  0  0  0  0  0  0  0  0  0  0  0
    0.8660    0.0000    0.0000 C   0  0  0  0  0  0  0  0  0  0  0  0
   -0.4330    0.7500    0.0000 C   0  0  0  0  0  0  0  0  0  0  0  0
   -1.7321    0.0000    0.0000 C   0  0  0  0  0  0  0  0  0  0  0  0
   -2.2801    1.3963    0.0000 C   0  0  0  0  0  0  0  0  0  0  0  0
   -0.7968    1.6199    0.0000 O   0  0  0  0  0  0  0  0  0  0  0  0
    0.1384    0.4471    0.0000 C   0  0  0  0  0  0  0  0  0  0  0  0
   -0.4330   -0.7500    0.0000 C   0  0  0  0  0  0  0  0  0  0  0  0
   -5.5569    5.3529    0.0000 H   0  0  0  0  0  0  0  0  0  0  0  0
   -6.5060    2.9345    0.0000 H   0  0  0  0  0  0  0  0  0  0  0  0
   -2.8870    4.3929    0.0000 H   0  0  0  0  0  0  0  0  0  0  0  0
   -5.5008    2.3898    0.0000 H   0  0  0  0  0  0  0  0  0  0  0  0
   -6.4522    0.9524    0.0000 H   0  0  0  0  0  0  0  0  0  0  0  0
   -6.5414   -0.2382    0.0000 H   0  0  0  0  0  0  0  0  0  0  0  0
   -6.1069   -1.5813    0.0000 H   0  0  0  0  0  0  0  0  0  0  0  0
   -3.2512   -2.8417    0.0000 H   0  0  0  0  0  0  0  0  0  0  0  0
   -5.1636   -5.3617    0.0000 H   0  0  0  0  0  0  0  0  0  0  0  0
   -6.5884   -3.9755    0.0000 H   0  0  0  0  0  0  0  0  0  0  0  0
   -3.5942   -3.9345    0.0000 H   0  0  0  0  0  0  0  0  0  0  0  0
   -2.7609   -2.7729    0.0000 H   0  0  0  0  0  0  0  0  0  0  0  0
    0.6906   -3.2892    0.0000 H   0  0  0  0  0  0  0  0  0  0  0  0
   -1.7184   -5.6741    0.0000 H   0  0  0  0  0  0  0  0  0  0  0  0
    1.0423   -4.5586    0.0000 H   0  0  0  0  0  0  0  0  0  0  0  0
    1.4306   -6.0075    0.0000 H   0  0  0  0  0  0  0  0  0  0  0  0
   -1.4091   -6.9577    0.0000 H   0  0  0  0  0  0  0  0  0  0  0  0
   -1.1155   -8.0533    0.0000 H   0  0  0  0  0  0  0  0  0  0  0  0
    1.7607   -7.2826    0.0000 H   0  0  0  0  0  0  0  0  0  0  0  0
   -1.9608  -10.5613    0.0000 H   0  0  0  0  0  0  0  0  0  0  0  0
   -0.1378  -11.3540    0.0000 H   0  0  0  0  0  0  0  0  0  0  0  0
   -1.3962   -8.6554    0.0000 H   0  0  0  0  0  0  0  0  0  0  0  0
    0.6950  -11.7043    0.0000 H   0  0  0  0  0  0  0  0  0  0  0  0
    2.8472  -11.3826    0.0000 H   0  0  0  0  0  0  0  0  0  0  0  0
    3.7013   -9.5510    0.0000 H   0  0  0  0  0  0  0  0  0  0  0  0
    2.5643   -7.6955    0.0000 H   0  0  0  0  0  0  0  0  0  0  0  0
   -2.8776   -2.5267    0.0000 H   0  0  0  0  0  0  0  0  0  0  0  0
   -4.7582   -3.9740    0.0000 H   0  0  0  0  0  0  0  0  0  0  0  0
   -4.1766   -6.0710    0.0000 H   0  0  0  0  0  0  0  0  0  0  0  0
    0.0722   -3.1082    0.0000 H   0  0  0  0  0  0  0  0  0  0  0  0
    2.6186   -3.7423    0.0000 H   0  0  0  0  0  0  0  0  0  0  0  0
    0.6370   -3.8991    0.0000 H   0  0  0  0  0  0  0  0  0  0  0  0
    2.7046   -1.7563    0.0000 H   0  0  0  0  0  0  0  0  0  0  0  0
    3.1549   -1.3987    0.0000 H   0  0  0  0  0  0  0  0  0  0  0  0
    2.6485   -2.0836    0.0000 H   0  0  0  0  0  0  0  0  0  0  0  0
    4.8540    0.2819    0.0000 H   0  0  0  0  0  0  0  0  0  0  0  0
    4.2285    0.6074    0.0000 H   0  0  0  0  0  0  0  0  0  0  0  0
    2.3537    2.9207    0.0000 H   0  0  0  0  0  0  0  0  0  0  0  0
    7.7293    4.5249    0.0000 H   0  0  0  0  0  0  0  0  0  0  0  0
    7.7672    2.4039    0.0000 H   0  0  0  0  0  0  0  0  0  0  0  0
    5.6083    4.4870    0.0000 H   0  0  0  0  0  0  0  0  0  0  0  0
    1.4907    3.3468    0.0000 H   0  0  0  0  0  0  0  0  0  0  0  0
    2.1286    3.1274    0.0000 H   0  0  0  0  0  0  0  0  0  0  0  0
    0.1016    4.0744    0.0000 H   0  0  0  0  0  0  0  0  0  0  0  0
   -1.4829    4.7533    0.0000 H   0  0  0  0  0  0  0  0  0  0  0  0
   -2.4873    4.6175    0.0000 H   0  0  0  0  0  0  0  0  0  0  0  0
   -3.9139    3.9604    0.0000 H   0  0  0  0  0  0  0  0  0  0  0  0
    1.7840    3.8159    0.0000 H   0  0  0  0  0  0  0  0  0  0  0  0
    3.2388    0.1868    0.0000 H   0  0  0  0  0  0  0  0  0  0  0  0
    4.3587    2.7957    0.0000 H   0  0  0  0  0  0  0  0  0  0  0  0
    4.5519    0.9590    0.0000 H   0  0  0  0  0  0  0  0  0  0  0  0
    3.0452    3.2352    0.0000 H   0  0  0  0  0  0  0  0  0  0  0  0
    1.8891   -1.0970    0.0000 H   0  0  0  0  0  0  0  0  0  0  0  0
   -1.8094    2.8205    0.0000 H   0  0  0  0  0  0  0  0  0  0  0  0
    1.5772    0.0231    0.0000 H   0  0  0  0  0  0  0  0  0  0  0  0
    1.3112    1.3824    0.0000 H   0  0  0  0  0  0  0  0  0  0  0  0
   -0.7732   -0.7441    0.0000 H   0  0  0  0  0  0  0  0  0  0  0  0
  1  2  2  3
  2  3  1  0
  3  4  1  0
  4  5  1  0
  5  6  1  0
  6  7  1  0
  7  8  1  0
  6  9  1  0
  9 10  1  0
 10 11  1  0
 11 12  1  0
 12 13  1  0
 13 14  1  0
 14 15  1  0
 15 16  1  0
 15 17  1  0
 17 18  1  0
 11 19  1  0
 19 20  1  0
 20 21  1  0
 21 22  1  0
 10 23  1  0
 23 24  1  0
 23 25  1  0
 25 26  1  0
 26 27  1  0
 26 28  1  0
 28 29  1  0
 29 30  1  0
 30 31  1  0
 26 32  1  0
 32 33  1  0
 33 34  1  0
 34 35  1  0
 33 36  1  0
 36 37  1  0
 37 38  1  0
 37 39  1  0
 39 40  1  0
 40 41  1  0
 41 42  1  0
 42 43  1  0
 43 44  1  0
 41 45  1  0
 35  3  1  0
 45 39  1  0
 42  3  1  0
 41  9  1  0
 45 10  1  0
 18 15  1  0
 21 19  1  0
 40 33  1  0
 45 40  1  0
  1 46  1  0
  1 47  1  0
  2 48  1  0
  4 49  1  0
  4 50  1  0
  5 51  1  0
  5 52  1  0
  6 53  1  0
  8 54  1  0
  8 55  1  0
  8 56  1  0
  9 57  1  0
 11 58  1  0
 12 59  1  0
 12 60  1  0
 13 61  1  0
 13 62  1  0
 14 63  1  0
 14 64  1  0
 16 65  1  0
 16 66  1  0
 16 67  1  0
 17 68  1  0
 17 69  1  0
 18 70  1  0
 18 71  1  0
 19 72  1  0
 20 73  1  0
 20 74  1  0
 23 75  1  0
 24 76  1  0
 24 77  1  0
 24 78  1  0
 25 79  1  0
 25 80  1  0
 27 81  1  0
 28 82  1  0
 28 83  1  0
 31 84  1  0
 31 85  1  0
 31 86  1  0
 32 87  1  0
 32 88  1  0
 34 89  1  0
 34 90  1  0
 35 91  1  0
 35 92  1  0
 36 93  1  0
 37 94  1  0
 38 95  1  0
 38 96  1  0
 38 97  1  0
 39 98  1  0
 42 99  1  0
 44100  1  0
 44101  1  0
 44102  1  0
M  END
$$$$
