
     RDKit          2D

 85 91  0  0  0  0  0  0  0  0999 V2000
  -10.8681   12.5345    0.0000 C   0  0  0  0  0  0  0  0  0  0  0  0
   -9.8074   11.4739    0.0000 C   0  0  0  0  0  0  0  0  0  0  0  0
   -8.7467   10.4132    0.0000 C   0  0  0  0  0  0  0  0  0  0  0  0
   -7.6861    9.3525    0.0000 C   0  0  0  0  0  0  0  0  0  0  0  0
   -6.6254    8.2919    0.0000 C   0  0  0  0  0  0  0  0  0  0  0  0
   -7.8542    7.4315    0.0000 C   0  0  0  0  0  0  0  0  0  0  0  0
   -7.7234    5.9372    0.0000 C   0  0  0  0  0  0  0  0  0  0  0  0
   -6.3640    5.3033    0.0000 C   0  0  0  0  0  0  0  0  0  0  0  0
   -5.3033    4.2426    0.0000 C   0  0  0  0  0  0  0  0  0  0  0  0
   -4.2426    3.1820    0.0000 C   0  0  0  0  0  0  0  0  0  0  0  0
   -3.1820    2.1213    0.0000 C   0  0  0  0  0  0  0  0  0  0  0  0
   -2.1213    1.0607    0.0000 C   0  0  0  0  0  0  0  0  0  0  0  0
   -1.0607    0.0000    0.0000 C   0  0  0  0  0  0  0  0  0  0  0  0
   -0.0000   -1.0607    0.0000 C   0  0  0  0  0  0  0  0  0  0  0  0
    1.0607    0.0000    0.0000 O   0  0  0  0  0  0  0  0  0  0  0  0
    0.0000    1.0607    0.0000 C   0  0  0  0  0  0  0  0  0  0  0  0
   -1.0607    2.1213    0.0000 C   0  0  0  0  0  0  0  0  0  0  0  0
    0.3882    2.5095    0.0000 C   0  0  0  0  0  0  0  0  0  0  0  0
    1.2150    1.2580    0.0000 C   0  0  0  0  0  0  0  0  0  0  0  0
    2.5911    1.8549    0.0000 C   0  0  0  0  0  0  0  0  0  0  0  0
    3.9673    2.4518    0.0000 O   0  0  0  0  0  0  0  0  0  0  0  0
   -0.7453    0.2411    0.0000 C   0  0  0  0  0  0  0  0  0  0  0  0
   -5.1352    6.1637    0.0000 C   0  0  0  0  0  0  0  0  0  0  0  0
   -3.6863    6.5519    0.0000 C   0  0  0  0  0  0  0  0  0  0  0  0
   -2.2375    6.9401    0.0000 C   0  0  0  0  0  0  0  0  0  0  0  0
   -0.7886    7.3284    0.0000 C   0  0  0  0  0  0  0  0  0  0  0  0
   -2.6257    8.3890    0.0000 C   0  0  0  0  0  0  0  0  0  0  0  0
   -3.0139    9.8379    0.0000 C   0  0  0  0  0  0  0  0  0  0  0  0
   -3.4021   11.2868    0.0000 N   0  0  0  0  0  0  0  0  0  0  0  0
   -5.2660    7.6580    0.0000 C   0  0  0  0  0  0  0  0  0  0  0  0
   -8.7467   12.5345    0.0000 C   0  0  0  0  0  0  0  0  0  0  0  0
   -7.6861   13.5952    0.0000 C   0  0  0  0  0  0  0  0  0  0  0  0
   -7.0522   14.9546    0.0000 C   0  0  0  0  0  0  0  0  0  0  0  0
   -8.5465   14.8239    0.0000 C   0  0  0  0  0  0  0  0  0  0  0  0
  -11.9287   13.5952    0.0000 H   0  0  0  0  0  0  0  0  0  0  0  0
  -10.0956   13.8203    0.0000 H   0  0  0  0  0  0  0  0  0  0  0  0
  -11.9287   11.4739    0.0000 H   0  0  0  0  0  0  0  0  0  0  0  0
  -10.8681   10.4132    0.0000 H   0  0  0  0  0  0  0  0  0  0  0  0
   -9.8074    9.3525    0.0000 H   0  0  0  0  0  0  0  0  0  0  0  0
   -7.5647   11.3367    0.0000 H   0  0  0  0  0  0  0  0  0  0  0  0
   -8.8681    8.4291    0.0000 H   0  0  0  0  0  0  0  0  0  0  0  0
   -6.6254   10.4132    0.0000 H   0  0  0  0  0  0  0  0  0  0  0  0
   -5.7651    9.5206    0.0000 H   0  0  0  0  0  0  0  0  0  0  0  0
   -9.3030    7.0433    0.0000 H   0  0  0  0  0  0  0  0  0  0  0  0
   -8.6491    8.7036    0.0000 H   0  0  0  0  0  0  0  0  0  0  0  0
   -8.1117    4.4883    0.0000 H   0  0  0  0  0  0  0  0  0  0  0  0
   -9.2177    6.0680    0.0000 H   0  0  0  0  0  0  0  0  0  0  0  0
   -7.2243    4.0746    0.0000 H   0  0  0  0  0  0  0  0  0  0  0  0
   -4.1213    5.1661    0.0000 H   0  0  0  0  0  0  0  0  0  0  0  0
   -6.3640    3.1820    0.0000 H   0  0  0  0  0  0  0  0  0  0  0  0
   -5.3033    2.1213    0.0000 H   0  0  0  0  0  0  0  0  0  0  0  0
   -3.0606    4.1054    0.0000 H   0  0  0  0  0  0  0  0  0  0  0  0
   -2.2585    3.3034    0.0000 H   0  0  0  0  0  0  0  0  0  0  0  0
   -4.2426    1.0607    0.0000 H   0  0  0  0  0  0  0  0  0  0  0  0
   -3.1820    0.0000    0.0000 H   0  0  0  0  0  0  0  0  0  0  0  0
   -1.9841   -1.1820    0.0000 H   0  0  0  0  0  0  0  0  0  0  0  0
   -0.0000   -2.5607    0.0000 H   0  0  0  0  0  0  0  0  0  0  0  0
   -1.6467    3.5021    0.0000 H   0  0  0  0  0  0  0  0  0  0  0  0
    1.9065   -0.0731    0.0000 H   0  0  0  0  0  0  0  0  0  0  0  0
    3.1880    0.4788    0.0000 H   0  0  0  0  0  0  0  0  0  0  0  0
    1.9942    3.2310    0.0000 H   0  0  0  0  0  0  0  0  0  0  0  0
    4.1384    3.9420    0.0000 H   0  0  0  0  0  0  0  0  0  0  0  0
   -2.1814   -0.1923    0.0000 H   0  0  0  0  0  0  0  0  0  0  0  0
   -4.3403    4.8916    0.0000 H   0  0  0  0  0  0  0  0  0  0  0  0
   -4.0746    8.0008    0.0000 H   0  0  0  0  0  0  0  0  0  0  0  0
   -3.1244    5.1611    0.0000 H   0  0  0  0  0  0  0  0  0  0  0  0
   -1.8492    5.4912    0.0000 H   0  0  0  0  0  0  0  0  0  0  0  0
    0.6603    7.7166    0.0000 H   0  0  0  0  0  0  0  0  0  0  0  0
   -0.4003    5.8795    0.0000 H   0  0  0  0  0  0  0  0  0  0  0  0
   -0.9973    8.8138    0.0000 H   0  0  0  0  0  0  0  0  0  0  0  0
   -1.2349    8.9510    0.0000 H   0  0  0  0  0  0  0  0  0  0  0  0
   -4.0746    8.0008    0.0000 H   0  0  0  0  0  0  0  0  0  0  0  0
   -1.5650   10.2261    0.0000 H   0  0  0  0  0  0  0  0  0  0  0  0
   -4.4993    9.6292    0.0000 H   0  0  0  0  0  0  0  0  0  0  0  0
   -2.3415   12.3474    0.0000 H   0  0  0  0  0  0  0  0  0  0  0  0
   -4.8510   11.6750    0.0000 H   0  0  0  0  0  0  0  0  0  0  0  0
   -5.0572    9.1434    0.0000 H   0  0  0  0  0  0  0  0  0  0  0  0
   -3.7717    7.5272    0.0000 H   0  0  0  0  0  0  0  0  0  0  0  0
   -9.8074   13.5952    0.0000 H   0  0  0  0  0  0  0  0  0  0  0  0
   -7.5647   11.6111    0.0000 H   0  0  0  0  0  0  0  0  0  0  0  0
   -6.4574   12.7348    0.0000 H   0  0  0  0  0  0  0  0  0  0  0  0
   -5.6033   14.5664    0.0000 H   0  0  0  0  0  0  0  0  0  0  0  0
   -6.9214   16.4489    0.0000 H   0  0  0  0  0  0  0  0  0  0  0  0
   -8.9347   16.2728    0.0000 H   0  0  0  0  0  0  0  0  0  0  0  0
  -10.0189   14.5378    0.0000 H   0  0  0  0  0  0  0  0  0  0  0  0
  1  2  1  0
  2  3  1  0
  3  4  1  0
  4  5  1  0
  5  6  1  0
  6  7  1  0
  7  8  1  0
  8  9  1  0
  9 10  1  0
 10 11  1  0
 11 12  1  0
 12 13  1  0
 13 14  1  0
 14 15  1  0
 15 16  1  0
 16 17  1  0
 17 18  1  0
 18 19  1  0
 19 20  1  0
 20 21  1  0
 19 22  1  0
  8 23  1  0
 23 24  1  0
 24 25  1  0
 25 26  1  0
 25 27  1  0
 27 28  1  0
 28 29  1  0
 23 30  1  0
  2 31  1  0
 31 32  1  0
 32 33  1  0
 33 34  1  0
 30  5  1  0
 34 32  1  0
 17 12  1  0
 22 18  1  0
 16 13  1  0
 22 14  1  0
 18 16  1  0
  1 35  1  0
  1 36  1  0
  1 37  1  0
  2 38  1  0
  3 39  1  0
  3 40  1  0
  4 41  1  0
  4 42  1  0
  5 43  1  0
  6 44  1  0
  6 45  1  0
  7 46  1  0
  7 47  1  0
  8 48  1  0
  9 49  1  0
  9 50  1  0
 10 51  1  0
 10 52  1  0
 11 53  1  0
 11 54  1  0
 12 55  1  0
 13 56  1  0
 14 57  1  0
 17 58  1  0
 19 59  1  0
 20 60  1  0
 20 61  1  0
 21 62  1  0
 22 63  1  0
 23 64  1  0
 24 65  1  0
 24 66  1  0
 25 67  1  0
 26 68  1  0
 26 69  1  0
 26 70  1  0
 27 71  1  0
 27 72  1  0
 28 73  1  0
 28 74  1  0
 29 75  1  0
 29 76  1  0
 30 77  1  0
 30 78  1  0
 31 79  1  0
 31 80  1  0
 32 81  1  0
 33 82  1  0
 33 83  1  0
 34 84  1  0
 34 85  1  0
M  END
$$$$
