
     RDKit          2D

 31 33  0  0  0  0  0  0  0  0999 V2000
    0.9852   -3.8152    0.0000 C   0  0  0  0  0  0  0  0  0  0  0  0
   -0.4771   -3.4814    0.0000 C   0  0  0  0  0  0  0  0  0  0  0  0
   -1.9395   -3.1476    0.0000 C   0  0  0  0  0  0  0  0  0  0  0  0
   -3.4019   -2.8138    0.0000 N   0  0  0  0  0  0  0  0  0  0  0  0
   -3.0682   -1.3515    0.0000 C   0  0  0  0  0  0  0  0  0  0  0  0
   -3.7190    0.0000    0.0000 C   0  0  0  0  0  0  0  0  0  0  0  0
   -3.0682    1.3515    0.0000 C   0  0  0  0  0  0  0  0  0  0  0  0
   -1.6058    1.6852    0.0000 C   0  0  0  0  0  0  0  0  0  0  0  0
   -0.4330    0.7500    0.0000 C   0  0  0  0  0  0  0  0  0  0  0  0
    0.8660    0.0000    0.0000 C   0  0  0  0  0  0  0  0  0  0  0  0
   -0.4330   -0.7500    0.0000 C   0  0  0  0  0  0  0  0  0  0  0  0
   -1.6058   -1.6852    0.0000 C   0  0  0  0  0  0  0  0  0  0  0  0
    2.4476   -4.1490    0.0000 H   0  0  0  0  0  0  0  0  0  0  0  0
    0.6515   -5.2776    0.0000 H   0  0  0  0  0  0  0  0  0  0  0  0
    1.2856   -2.4990    0.0000 H   0  0  0  0  0  0  0  0  0  0  0  0
   -0.1170   -2.7703    0.0000 H   0  0  0  0  0  0  0  0  0  0  0  0
   -0.8109   -4.9438    0.0000 H   0  0  0  0  0  0  0  0  0  0  0  0
   -2.2733   -4.6100    0.0000 H   0  0  0  0  0  0  0  0  0  0  0  0
   -4.6720   -3.6119    0.0000 H   0  0  0  0  0  0  0  0  0  0  0  0
   -4.5271   -1.6998    0.0000 H   0  0  0  0  0  0  0  0  0  0  0  0
   -4.9970   -0.7853    0.0000 H   0  0  0  0  0  0  0  0  0  0  0  0
   -4.9970    0.7853    0.0000 H   0  0  0  0  0  0  0  0  0  0  0  0
   -4.4790    1.8610    0.0000 H   0  0  0  0  0  0  0  0  0  0  0  0
   -3.2510    2.8403    0.0000 H   0  0  0  0  0  0  0  0  0  0  0  0
   -2.0870    3.1059    0.0000 H   0  0  0  0  0  0  0  0  0  0  0  0
   -0.4330    2.6205    0.0000 H   0  0  0  0  0  0  0  0  0  0  0  0
    0.4120    1.9894    0.0000 H   0  0  0  0  0  0  0  0  0  0  0  0
    1.8302    1.1491    0.0000 H   0  0  0  0  0  0  0  0  0  0  0  0
    1.8302   -1.1491    0.0000 H   0  0  0  0  0  0  0  0  0  0  0  0
    0.3833   -1.4776    0.0000 H   0  0  0  0  0  0  0  0  0  0  0  0
   -0.7725   -2.2088    0.0000 H   0  0  0  0  0  0  0  0  0  0  0  0
  1  2  1  0
  2  3  1  0
  3  4  1  0
  4  5  1  0
  5  6  1  0
  6  7  1  0
  7  8  1  0
  8  9  1  0
  9 10  1  0
 10 11  1  0
 11 12  1  0
 12  3  1  0
 12  5  1  0
 11  9  1  0
  1 13  1  0
  1 14  1  0
  1 15  1  0
  2 16  1  0
  2 17  1  0
  3 18  1  0
  4 19  1  0
  5 20  1  0
  6 21  1  0
  6 22  1  0
  7 23  1  0
  7 24  1  0
  8 25  1  0
  8 26  1  0
  9 27  1  0
 10 28  1  0
 10 29  1  0
 11 30  1  0
 12 31  1  0
M  END
$$$$
