
     RDKit          2D

 47 50  0  0  0  0  0  0  0  0999 V2000
   -5.3719    6.1356    0.0000 C   0  0  0  0  0  0  0  0  0  0  0  0
   -4.8589    4.7261    0.0000 C   0  0  0  0  0  0  0  0  0  0  0  0
   -4.3458    3.3165    0.0000 C   0  0  0  0  0  0  0  0  0  0  0  0
   -3.8328    1.9070    0.0000 N   0  0  0  0  0  0  0  0  0  0  0  0
   -2.4233    2.4200    0.0000 C   0  0  0  0  0  0  0  0  0  0  0  0
   -1.9102    1.0105    0.0000 N   0  0  0  0  0  0  0  0  0  0  0  0
   -2.8744   -0.1386    0.0000 C   0  0  0  0  0  0  0  0  0  0  0  0
   -3.8386   -1.2877    0.0000 C   0  0  0  0  0  0  0  0  0  0  0  0
   -0.4330    0.7500    0.0000 C   0  0  0  0  0  0  0  0  0  0  0  0
    0.8660    0.0000    0.0000 C   0  0  0  0  0  0  0  0  0  0  0  0
    1.8302    1.1491    0.0000 F   0  0  0  0  0  0  0  0  0  0  0  0
   -0.4330   -0.7500    0.0000 C   0  0  0  0  0  0  0  0  0  0  0  0
    0.1771   -2.1203    0.0000 C   0  0  0  0  0  0  0  0  0  0  0  0
   -0.9376   -3.1240    0.0000 C   0  0  0  0  0  0  0  0  0  0  0  0
   -2.2367   -2.3740    0.0000 C   0  0  0  0  0  0  0  0  0  0  0  0
   -3.1183   -3.5875    0.0000 C   0  0  0  0  0  0  0  0  0  0  0  0
   -3.3514   -1.3703    0.0000 C   0  0  0  0  0  0  0  0  0  0  0  0
   -1.9248   -0.9068    0.0000 C   0  0  0  0  0  0  0  0  0  0  0  0
   -2.9363    3.8296    0.0000 C   0  0  0  0  0  0  0  0  0  0  0  0
   -1.5267    4.3426    0.0000 O   0  0  0  0  0  0  0  0  0  0  0  0
   -5.8849    7.5451    0.0000 H   0  0  0  0  0  0  0  0  0  0  0  0
   -3.9623    6.6486    0.0000 H   0  0  0  0  0  0  0  0  0  0  0  0
   -6.7814    5.6226    0.0000 H   0  0  0  0  0  0  0  0  0  0  0  0
   -3.5224    5.4071    0.0000 H   0  0  0  0  0  0  0  0  0  0  0  0
   -6.2684    4.2130    0.0000 H   0  0  0  0  0  0  0  0  0  0  0  0
   -5.7554    2.8035    0.0000 H   0  0  0  0  0  0  0  0  0  0  0  0
   -4.7768    0.7413    0.0000 H   0  0  0  0  0  0  0  0  0  0  0  0
   -1.0137    2.9330    0.0000 H   0  0  0  0  0  0  0  0  0  0  0  0
   -4.0235    0.8256    0.0000 H   0  0  0  0  0  0  0  0  0  0  0  0
   -1.9928   -1.3522    0.0000 H   0  0  0  0  0  0  0  0  0  0  0  0
   -5.0522   -2.1693    0.0000 H   0  0  0  0  0  0  0  0  0  0  0  0
   -2.9570   -2.5012    0.0000 H   0  0  0  0  0  0  0  0  0  0  0  0
   -4.9877   -0.3235    0.0000 H   0  0  0  0  0  0  0  0  0  0  0  0
    0.0800    2.1595    0.0000 H   0  0  0  0  0  0  0  0  0  0  0  0
    1.9631   -1.0230    0.0000 H   0  0  0  0  0  0  0  0  0  0  0  0
    1.5579   -1.5343    0.0000 H   0  0  0  0  0  0  0  0  0  0  0  0
    1.0588   -3.3338    0.0000 H   0  0  0  0  0  0  0  0  0  0  0  0
    0.1771   -4.1277    0.0000 H   0  0  0  0  0  0  0  0  0  0  0  0
   -1.6648   -4.4360    0.0000 H   0  0  0  0  0  0  0  0  0  0  0  0
   -4.0000   -4.8011    0.0000 H   0  0  0  0  0  0  0  0  0  0  0  0
   -4.5091   -3.0257    0.0000 H   0  0  0  0  0  0  0  0  0  0  0  0
   -2.0213   -4.6106    0.0000 H   0  0  0  0  0  0  0  0  0  0  0  0
   -4.5334   -2.2938    0.0000 H   0  0  0  0  0  0  0  0  0  0  0  0
   -4.3551   -0.2557    0.0000 H   0  0  0  0  0  0  0  0  0  0  0  0
   -2.5824    0.4414    0.0000 H   0  0  0  0  0  0  0  0  0  0  0  0
   -3.2737    5.2911    0.0000 H   0  0  0  0  0  0  0  0  0  0  0  0
   -1.2663    5.8198    0.0000 H   0  0  0  0  0  0  0  0  0  0  0  0
  1  2  1  0
  2  3  1  0
  3  4  1  0
  4  5  1  0
  5  6  1  0
  6  7  1  0
  7  8  1  0
  6  9  1  0
  9 10  1  0
 10 11  1  0
 10 12  1  0
 12 13  1  1
 13 14  1  0
 14 15  1  0
 15 16  1  1
 15 17  1  0
 17 18  1  0
  5 19  1  0
 19 20  1  0
 19  3  1  0
 12  9  1  0
 18 15  1  0
 18 12  1  0
  1 21  1  0
  1 22  1  0
  1 23  1  0
  2 24  1  0
  2 25  1  0
  3 26  1  1
  4 27  1  0
  5 28  1  1
  7 29  1  0
  7 30  1  0
  8 31  1  0
  8 32  1  0
  8 33  1  0
  9 34  1  1
 10 35  1  6
 13 36  1  0
 13 37  1  0
 14 38  1  0
 14 39  1  0
 16 40  1  0
 16 41  1  0
 16 42  1  0
 17 43  1  0
 17 44  1  0
 18 45  1  1
 19 46  1  6
 20 47  1  0
M  END
$$$$
