
     RDKit          2D

 23 27  0  0  0  0  0  0  0  0999 V2000
   -4.7321    2.5981    0.0000 C   0  0  0  0  0  0  0  0  0  0  0  0
   -3.2321    2.5981    0.0000 C   0  0  0  0  0  0  0  0  0  0  0  0
   -2.4821    1.2990    0.0000 C   0  0  0  0  0  0  0  0  0  0  0  0
   -1.1830    2.0490    0.0000 C   0  0  0  0  0  0  0  0  0  0  0  0
   -0.4330    0.7500    0.0000 C   0  0  0  0  0  0  0  0  0  0  0  0
    0.8660    0.0000    0.0000 C   0  0  0  0  0  0  0  0  0  0  0  0
   -0.4330   -0.7500    0.0000 C   0  0  0  0  0  0  0  0  0  0  0  0
   -1.7321    0.0000    0.0000 C   0  0  0  0  0  0  0  0  0  0  0  0
   -3.2321   -0.0000    0.0000 C   0  0  0  0  0  0  0  0  0  0  0  0
   -4.7321   -0.0000    0.0000 C   0  0  0  0  0  0  0  0  0  0  0  0
   -5.4821    1.2990    0.0000 C   0  0  0  0  0  0  0  0  0  0  0  0
   -5.4821    3.8971    0.0000 H   0  0  0  0  0  0  0  0  0  0  0  0
   -2.6460    3.9788    0.0000 H   0  0  0  0  0  0  0  0  0  0  0  0
    0.1160    2.7990    0.0000 H   0  0  0  0  0  0  0  0  0  0  0  0
   -1.7691    3.4298    0.0000 H   0  0  0  0  0  0  0  0  0  0  0  0
    1.8302    1.1491    0.0000 H   0  0  0  0  0  0  0  0  0  0  0  0
    1.8302   -1.1491    0.0000 H   0  0  0  0  0  0  0  0  0  0  0  0
   -0.4330   -2.2500    0.0000 H   0  0  0  0  0  0  0  0  0  0  0  0
   -3.2321   -1.5000    0.0000 H   0  0  0  0  0  0  0  0  0  0  0  0
   -4.4716   -1.4772    0.0000 H   0  0  0  0  0  0  0  0  0  0  0  0
   -6.1416   -0.5130    0.0000 H   0  0  0  0  0  0  0  0  0  0  0  0
   -6.6311    0.3349    0.0000 H   0  0  0  0  0  0  0  0  0  0  0  0
   -6.6311    2.2632    0.0000 H   0  0  0  0  0  0  0  0  0  0  0  0
  1  2  2  0
  2  3  1  0
  3  4  1  0
  4  5  1  0
  5  6  1  0
  6  7  1  0
  7  8  1  0
  8  9  1  0
  9 10  1  0
 10 11  1  0
 11  1  1  0
  8  3  1  0
  9  3  1  0
  7  5  1  0
  8  5  1  0
  1 12  1  0
  2 13  1  0
  4 14  1  0
  4 15  1  0
  6 16  1  0
  6 17  1  0
  7 18  1  0
  9 19  1  0
 10 20  1  0
 10 21  1  0
 11 22  1  0
 11 23  1  0
M  END
$$$$
