
     RDKit          2D

 28 28  0  0  0  0  0  0  0  0999 V2000
    1.9058    4.7395    0.0000 C   0  0  0  0  0  0  0  0  0  0  0  0
    1.6453    3.2623    0.0000 C   0  0  0  0  0  0  0  0  0  0  0  0
    2.7944    2.2981    0.0000 C   0  0  0  0  0  0  0  0  0  0  0  0
    3.9435    1.3340    0.0000 C   0  0  0  0  0  0  0  0  0  0  0  0
    1.8302    1.1491    0.0000 C   0  0  0  0  0  0  0  0  0  0  0  0
    0.8660    0.0000    0.0000 C   0  0  0  0  0  0  0  0  0  0  0  0
   -0.4330    0.7500    0.0000 C   0  0  0  0  0  0  0  0  0  0  0  0
   -0.4330   -0.7500    0.0000 C   0  0  0  0  0  0  0  0  0  0  0  0
    0.0800   -2.1595    0.0000 O   0  0  0  0  0  0  0  0  0  0  0  0
   -0.8842   -3.3086    0.0000 C   0  0  0  0  0  0  0  0  0  0  0  0
   -1.8483   -4.4577    0.0000 N   0  0  0  0  0  0  0  0  0  0  0  0
    0.7567    5.7037    0.0000 H   0  0  0  0  0  0  0  0  0  0  0  0
    3.3153    5.2526    0.0000 H   0  0  0  0  0  0  0  0  0  0  0  0
    0.1535    3.1056    0.0000 H   0  0  0  0  0  0  0  0  0  0  0  0
    3.7586    3.4472    0.0000 H   0  0  0  0  0  0  0  0  0  0  0  0
    5.0925    0.3698    0.0000 H   0  0  0  0  0  0  0  0  0  0  0  0
    4.9076    2.4830    0.0000 H   0  0  0  0  0  0  0  0  0  0  0  0
    3.4611    0.5911    0.0000 H   0  0  0  0  0  0  0  0  0  0  0  0
    0.6811    2.1132    0.0000 H   0  0  0  0  0  0  0  0  0  0  0  0
    2.4343    0.5013    0.0000 H   0  0  0  0  0  0  0  0  0  0  0  0
    1.8302   -1.1491    0.0000 H   0  0  0  0  0  0  0  0  0  0  0  0
   -1.9102    1.0105    0.0000 H   0  0  0  0  0  0  0  0  0  0  0  0
   -0.2763    2.2418    0.0000 H   0  0  0  0  0  0  0  0  0  0  0  0
   -1.9102   -1.0105    0.0000 H   0  0  0  0  0  0  0  0  0  0  0  0
   -2.0332   -2.3444    0.0000 H   0  0  0  0  0  0  0  0  0  0  0  0
    0.2649   -4.2728    0.0000 H   0  0  0  0  0  0  0  0  0  0  0  0
   -3.3256   -4.1972    0.0000 H   0  0  0  0  0  0  0  0  0  0  0  0
   -1.3353   -5.8672    0.0000 H   0  0  0  0  0  0  0  0  0  0  0  0
  1  2  2  3
  2  3  1  0
  3  4  1  0
  3  5  1  0
  5  6  1  0
  6  7  1  0
  7  8  1  0
  8  9  1  0
  9 10  1  0
 10 11  1  0
  8  6  1  0
  1 12  1  0
  1 13  1  0
  2 14  1  0
  3 15  1  6
  4 16  1  0
  4 17  1  0
  4 18  1  0
  5 19  1  0
  5 20  1  0
  6 21  1  6
  7 22  1  0
  7 23  1  0
  8 24  1  6
 10 25  1  0
 10 26  1  0
 11 27  1  0
 11 28  1  0
M  END
$$$$
