
     RDKit          2D

 97106  0  0  0  0  0  0  0  0999 V2000
    1.0422   -4.8049    0.0000 C   0  0  0  0  0  0  0  0  0  0  0  0
   -0.4250   -4.4930    0.0000 C   0  0  0  0  0  0  0  0  0  0  0  0
   -1.8516   -4.9565    0.0000 C   0  0  0  0  0  0  0  0  0  0  0  0
   -1.5398   -3.4893    0.0000 C   0  0  0  0  0  0  0  0  0  0  0  0
   -2.9305   -2.9274    0.0000 C   0  0  0  0  0  0  0  0  0  0  0  0
   -0.7449   -2.2172    0.0000 C   0  0  0  0  0  0  0  0  0  0  0  0
    0.6459   -2.7791    0.0000 I   0  0  0  0  0  0  0  0  0  0  0  0
   -1.8596   -1.2135    0.0000 C   0  0  0  0  0  0  0  0  0  0  0  0
   -2.7413    0.0000    0.0000 O   0  0  0  0  0  0  0  0  0  0  0  0
   -1.8596    1.2135    0.0000 C   0  0  0  0  0  0  0  0  0  0  0  0
   -1.8596    2.7135    0.0000 C   0  0  0  0  0  0  0  0  0  0  0  0
   -0.4330    3.1771    0.0000 C   0  0  0  0  0  0  0  0  0  0  0  0
   -1.0431    4.5474    0.0000 C   0  0  0  0  0  0  0  0  0  0  0  0
   -1.6532    5.9177    0.0000 C   0  0  0  0  0  0  0  0  0  0  0  0
   -2.2633    7.2880    0.0000 C   0  0  0  0  0  0  0  0  0  0  0  0
   -3.0235    5.3076    0.0000 C   0  0  0  0  0  0  0  0  0  0  0  0
   -4.3939    4.6975    0.0000 N   0  0  0  0  0  0  0  0  0  0  0  0
   -5.6074    5.5792    0.0000 C   0  0  0  0  0  0  0  0  0  0  0  0
   -6.8209    6.4608    0.0000 O   0  0  0  0  0  0  0  0  0  0  0  0
   -0.2829    6.5278    0.0000 C   0  0  0  0  0  0  0  0  0  0  0  0
    1.0874    7.1379    0.0000 O   0  0  0  0  0  0  0  0  0  0  0  0
    1.2442    8.6297    0.0000 C   0  0  0  0  0  0  0  0  0  0  0  0
    0.4487    1.9635    0.0000 C   0  0  0  0  0  0  0  0  0  0  0  0
    1.5634    2.9672    0.0000 C   0  0  0  0  0  0  0  0  0  0  0  0
    2.6781    3.9709    0.0000 C   0  0  0  0  0  0  0  0  0  0  0  0
    3.9361    3.1540    0.0000 C   0  0  0  0  0  0  0  0  0  0  0  0
    4.7531    4.4120    0.0000 Mg  0  0  0  0  0  2  0  0  0  0  0  0
    3.4951    5.2289    0.0000 C   0  0  0  0  0  0  0  0  0  0  0  0
    1.9971    5.3074    0.0000 C   0  0  0  0  0  0  0  0  0  0  0  0
   -0.4330    0.7500    0.0000 C   0  0  0  0  0  0  0  0  0  0  0  0
    0.8660    0.0000    0.0000 C   0  0  0  0  0  0  0  0  0  0  0  0
    1.8302    1.1491    0.0000 C   0  0  0  0  0  0  0  0  0  0  0  0
    3.1292    1.8991    0.0000 N   0  0  0  0  0  0  0  0  0  0  0  0
    3.1292    0.3991    0.0000 C   0  0  0  0  0  0  0  0  0  0  0  0
    4.6065    0.1386    0.0000 C   0  0  0  0  0  0  0  0  0  0  0  0
    6.0837   -0.1219    0.0000 C   0  0  0  0  0  0  0  0  0  0  0  0
    7.5609   -0.3824    0.0000 N   0  0  0  0  0  0  0  0  0  0  0  0
    5.8232   -1.5991    0.0000 N   0  0  0  0  0  0  0  0  0  0  0  0
   -0.4330   -0.7500    0.0000 C   0  0  0  0  0  0  0  0  0  0  0  0
   -3.3514    2.8703    0.0000 C   0  0  0  0  0  0  0  0  0  0  0  0
   -4.5649    3.7520    0.0000 C   0  0  0  0  0  0  0  0  0  0  0  0
   -3.6832    4.9655    0.0000 C   0  0  0  0  0  0  0  0  0  0  0  0
   -2.9560    6.2775    0.0000 I   0  0  0  0  0  0  0  0  0  0  0  0
   -2.4697    4.0838    0.0000 C   0  0  0  0  0  0  0  0  0  0  0  0
   -1.3040    5.0278    0.0000 C   0  0  0  0  0  0  0  0  0  0  0  0
    1.5057   -6.2314    0.0000 H   0  0  0  0  0  0  0  0  0  0  0  0
    2.0459   -3.6901    0.0000 H   0  0  0  0  0  0  0  0  0  0  0  0
   -3.3459   -5.0873    0.0000 H   0  0  0  0  0  0  0  0  0  0  0  0
   -1.6429   -6.4419    0.0000 H   0  0  0  0  0  0  0  0  0  0  0  0
   -4.3213   -2.3655    0.0000 H   0  0  0  0  0  0  0  0  0  0  0  0
   -3.6578   -4.2393    0.0000 H   0  0  0  0  0  0  0  0  0  0  0  0
   -2.7219   -1.4420    0.0000 H   0  0  0  0  0  0  0  0  0  0  0  0
   -3.1841   -1.9177    0.0000 H   0  0  0  0  0  0  0  0  0  0  0  0
   -3.3320    1.4997    0.0000 H   0  0  0  0  0  0  0  0  0  0  0  0
    0.7649    4.0798    0.0000 H   0  0  0  0  0  0  0  0  0  0  0  0
   -2.5203    4.2870    0.0000 H   0  0  0  0  0  0  0  0  0  0  0  0
    0.4341    4.8078    0.0000 H   0  0  0  0  0  0  0  0  0  0  0  0
   -2.8734    8.6583    0.0000 H   0  0  0  0  0  0  0  0  0  0  0  0
   -3.7406    7.0276    0.0000 H   0  0  0  0  0  0  0  0  0  0  0  0
   -0.9776    8.0606    0.0000 H   0  0  0  0  0  0  0  0  0  0  0  0
   -3.6336    6.6779    0.0000 H   0  0  0  0  0  0  0  0  0  0  0  0
   -3.9471    6.4895    0.0000 H   0  0  0  0  0  0  0  0  0  0  0  0
   -4.9070    3.2880    0.0000 H   0  0  0  0  0  0  0  0  0  0  0  0
   -6.6304    4.4822    0.0000 H   0  0  0  0  0  0  0  0  0  0  0  0
   -4.7257    6.7927    0.0000 H   0  0  0  0  0  0  0  0  0  0  0  0
   -6.6641    7.9526    0.0000 H   0  0  0  0  0  0  0  0  0  0  0  0
   -0.7214    7.9623    0.0000 H   0  0  0  0  0  0  0  0  0  0  0  0
    0.3272    5.1575    0.0000 H   0  0  0  0  0  0  0  0  0  0  0  0
    1.4010   10.1215    0.0000 H   0  0  0  0  0  0  0  0  0  0  0  0
    2.7360    8.4729    0.0000 H   0  0  0  0  0  0  0  0  0  0  0  0
   -0.2476    8.7865    0.0000 H   0  0  0  0  0  0  0  0  0  0  0  0
    1.7731    1.2594    0.0000 H   0  0  0  0  0  0  0  0  0  0  0  0
    2.6955    1.9832    0.0000 H   0  0  0  0  0  0  0  0  0  0  0  0
    0.5597    4.0819    0.0000 H   0  0  0  0  0  0  0  0  0  0  0  0
    5.2843    2.4964    0.0000 H   0  0  0  0  0  0  0  0  0  0  0  0
    3.6244    1.6867    0.0000 H   0  0  0  0  0  0  0  0  0  0  0  0
    3.9586    6.6555    0.0000 H   0  0  0  0  0  0  0  0  0  0  0  0
    2.1800    6.7962    0.0000 H   0  0  0  0  0  0  0  0  0  0  0  0
    0.6268    4.6973    0.0000 H   0  0  0  0  0  0  0  0  0  0  0  0
    1.6830   -1.2580    0.0000 H   0  0  0  0  0  0  0  0  0  0  0  0
    1.1727    2.4973    0.0000 H   0  0  0  0  0  0  0  0  0  0  0  0
    4.1713    2.9780    0.0000 H   0  0  0  0  0  0  0  0  0  0  0  0
    2.7919   -1.0625    0.0000 H   0  0  0  0  0  0  0  0  0  0  0  0
    4.1679   -1.2959    0.0000 H   0  0  0  0  0  0  0  0  0  0  0  0
    5.0451    1.5730    0.0000 H   0  0  0  0  0  0  0  0  0  0  0  0
    6.3441    1.3553    0.0000 H   0  0  0  0  0  0  0  0  0  0  0  0
    8.5251    0.7667    0.0000 H   0  0  0  0  0  0  0  0  0  0  0  0
    8.0739   -1.7919    0.0000 H   0  0  0  0  0  0  0  0  0  0  0  0
    6.9723   -2.5633    0.0000 H   0  0  0  0  0  0  0  0  0  0  0  0
    4.4867   -2.2801    0.0000 H   0  0  0  0  0  0  0  0  0  0  0  0
   -4.0556    1.5459    0.0000 H   0  0  0  0  0  0  0  0  0  0  0  0
   -5.8769    4.4792    0.0000 H   0  0  0  0  0  0  0  0  0  0  0  0
   -5.4466    2.5385    0.0000 H   0  0  0  0  0  0  0  0  0  0  0  0
   -4.6473    6.1146    0.0000 H   0  0  0  0  0  0  0  0  0  0  0  0
    0.0555    5.6617    0.0000 H   0  0  0  0  0  0  0  0  0  0  0  0
   -1.7674    6.4544    0.0000 H   0  0  0  0  0  0  0  0  0  0  0  0
   -0.1060    4.1252    0.0000 H   0  0  0  0  0  0  0  0  0  0  0  0
  1  2  2  3
  2  3  1  0
  3  4  1  0
  4  5  1  0
  4  6  1  0
  6  7  1  0
  6  8  1  0
  8  9  1  0
  9 10  1  0
 10 11  1  0
 11 12  1  0
 12 13  1  0
 13 14  1  0
 14 15  1  0
 14 16  1  0
 16 17  1  0
 17 18  1  0
 18 19  1  0
 14 20  1  0
 20 21  1  0
 21 22  1  0
 12 23  1  0
 23 24  1  0
 24 25  1  0
 25 26  1  0
 26 27  1  0
 27 28  1  0
 28 29  1  0
 23 30  1  0
 30 31  1  0
 31 32  1  0
 32 33  1  0
 33 34  1  0
 34 35  1  0
 35 36  1  0
 36 37  1  0
 36 38  1  0
 31 39  1  0
 11 40  1  0
 40 41  1  0
 41 42  1  0
 42 43  1  0
 42 44  1  0
 44 45  1  0
  4  2  1  0
 39  6  1  0
 44 40  1  0
 39  8  1  0
 30 10  1  0
 34 32  1  0
 44 11  1  0
 28 25  1  0
 39 30  1  0
 29 25  1  0
  1 46  1  0
  1 47  1  0
  3 48  1  0
  3 49  1  0
  5 50  1  0
  5 51  1  0
  5 52  1  0
  8 53  1  0
 10 54  1  0
 12 55  1  0
 13 56  1  0
 13 57  1  0
 15 58  1  0
 15 59  1  0
 15 60  1  0
 16 61  1  0
 16 62  1  0
 17 63  1  0
 18 64  1  0
 18 65  1  0
 19 66  1  0
 20 67  1  0
 20 68  1  0
 22 69  1  0
 22 70  1  0
 22 71  1  0
 23 72  1  0
 24 73  1  0
 24 74  1  0
 26 75  1  0
 26 76  1  0
 28 77  1  0
 29 78  1  0
 29 79  1  0
 31 80  1  0
 32 81  1  0
 33 82  1  0
 34 83  1  0
 35 84  1  0
 35 85  1  0
 36 86  1  0
 37 87  1  0
 37 88  1  0
 38 89  1  0
 38 90  1  0
 40 91  1  0
 41 92  1  0
 41 93  1  0
 42 94  1  0
 45 95  1  0
 45 96  1  0
 45 97  1  0
M  END
$$$$
