
     RDKit          2D

 61 61  0  0  0  0  0  0  0  0999 V2000
    9.1218   -1.5587    0.0000 C   0  0  0  0  0  0  0  0  0  0  0  0
    8.9651   -0.0670    0.0000 C   0  0  0  0  0  0  0  0  0  0  0  0
   10.1786    0.8147    0.0000 C   0  0  0  0  0  0  0  0  0  0  0  0
    7.5947    0.5431    0.0000 C   0  0  0  0  0  0  0  0  0  0  0  0
    6.2244    1.1533    0.0000 N   0  0  0  0  0  0  0  0  0  0  0  0
    5.0109    0.2716    0.0000 C   0  0  0  0  0  0  0  0  0  0  0  0
    5.1677   -1.2202    0.0000 N   0  0  0  0  0  0  0  0  0  0  0  0
    6.5380   -1.8303    0.0000 N   0  0  0  0  0  0  0  0  0  0  0  0
    6.6948   -3.3221    0.0000 C   0  0  0  0  0  0  0  0  0  0  0  0
    8.0651   -3.9322    0.0000 O   0  0  0  0  0  0  0  0  0  0  0  0
    3.6406    0.8817    0.0000 N   0  0  0  0  0  0  0  0  0  0  0  0
    2.4271    0.0000    0.0000 C   0  0  0  0  0  0  0  0  0  0  0  0
    1.9635   -1.4266    0.0000 C   0  0  0  0  0  0  0  0  0  0  0  0
    0.7500   -2.3083    0.0000 C   0  0  0  0  0  0  0  0  0  0  0  0
   -0.7500   -2.3083    0.0000 C   0  0  0  0  0  0  0  0  0  0  0  0
   -1.9635   -1.4266    0.0000 C   0  0  0  0  0  0  0  0  0  0  0  0
   -2.4271   -2.8532    0.0000 C   0  0  0  0  0  0  0  0  0  0  0  0
   -2.8906   -4.2798    0.0000 C   0  0  0  0  0  0  0  0  0  0  0  0
   -2.4271    0.0000    0.0000 C   0  0  0  0  0  0  0  0  0  0  0  0
   -1.9635    1.4266    0.0000 C   0  0  0  0  0  0  0  0  0  0  0  0
   -3.1771    2.3083    0.0000 C   0  0  0  0  0  0  0  0  0  0  0  0
   -0.7500    2.3083    0.0000 C   0  0  0  0  0  0  0  0  0  0  0  0
    0.7500    2.3083    0.0000 C   0  0  0  0  0  0  0  0  0  0  0  0
    1.9635    1.4266    0.0000 C   0  0  0  0  0  0  0  0  0  0  0  0
    2.4271    2.8532    0.0000 C   0  0  0  0  0  0  0  0  0  0  0  0
   10.4922   -2.1688    0.0000 H   0  0  0  0  0  0  0  0  0  0  0  0
    7.9083   -2.4404    0.0000 H   0  0  0  0  0  0  0  0  0  0  0  0
   11.3921    1.6964    0.0000 H   0  0  0  0  0  0  0  0  0  0  0  0
   11.0603   -0.3988    0.0000 H   0  0  0  0  0  0  0  0  0  0  0  0
    9.2969    2.0282    0.0000 H   0  0  0  0  0  0  0  0  0  0  0  0
    7.3070   -0.3980    0.0000 H   0  0  0  0  0  0  0  0  0  0  0  0
    8.2048    1.9135    0.0000 H   0  0  0  0  0  0  0  0  0  0  0  0
    4.1804   -2.1409    0.0000 H   0  0  0  0  0  0  0  0  0  0  0  0
    7.3988   -1.3532    0.0000 H   0  0  0  0  0  0  0  0  0  0  0  0
    5.4813   -4.2038    0.0000 H   0  0  0  0  0  0  0  0  0  0  0  0
    3.6668    2.3814    0.0000 H   0  0  0  0  0  0  0  0  0  0  0  0
    3.7390   -0.7272    0.0000 H   0  0  0  0  0  0  0  0  0  0  0  0
    3.2734   -1.7532    0.0000 H   0  0  0  0  0  0  0  0  0  0  0  0
    2.5975   -2.7860    0.0000 H   0  0  0  0  0  0  0  0  0  0  0  0
    1.8470   -3.3313    0.0000 H   0  0  0  0  0  0  0  0  0  0  0  0
    0.5414   -3.3817    0.0000 H   0  0  0  0  0  0  0  0  0  0  0  0
   -0.5037   -3.0664    0.0000 H   0  0  0  0  0  0  0  0  0  0  0  0
   -1.7141   -3.4574    0.0000 H   0  0  0  0  0  0  0  0  0  0  0  0
   -3.3035   -1.5911    0.0000 H   0  0  0  0  0  0  0  0  0  0  0  0
   -3.7110   -2.4360    0.0000 H   0  0  0  0  0  0  0  0  0  0  0  0
   -1.4360   -3.3153    0.0000 H   0  0  0  0  0  0  0  0  0  0  0  0
   -3.3541   -5.7063    0.0000 H   0  0  0  0  0  0  0  0  0  0  0  0
   -4.3172   -3.8162    0.0000 H   0  0  0  0  0  0  0  0  0  0  0  0
   -1.4640   -4.7433    0.0000 H   0  0  0  0  0  0  0  0  0  0  0  0
   -3.7390   -0.7272    0.0000 H   0  0  0  0  0  0  0  0  0  0  0  0
   -3.6406    0.8817    0.0000 H   0  0  0  0  0  0  0  0  0  0  0  0
   -3.0203    3.8000    0.0000 H   0  0  0  0  0  0  0  0  0  0  0  0
   -4.5474    1.6982    0.0000 H   0  0  0  0  0  0  0  0  0  0  0  0
   -1.9635    3.1899    0.0000 H   0  0  0  0  0  0  0  0  0  0  0  0
   -0.4638    3.7807    0.0000 H   0  0  0  0  0  0  0  0  0  0  0  0
    0.2865    3.7348    0.0000 H   0  0  0  0  0  0  0  0  0  0  0  0
    1.7141    3.4574    0.0000 H   0  0  0  0  0  0  0  0  0  0  0  0
    3.4189    1.7895    0.0000 H   0  0  0  0  0  0  0  0  0  0  0  0
    2.8906    4.2798    0.0000 H   0  0  0  0  0  0  0  0  0  0  0  0
    3.8995    2.5670    0.0000 H   0  0  0  0  0  0  0  0  0  0  0  0
    1.0676    3.4871    0.0000 H   0  0  0  0  0  0  0  0  0  0  0  0
  1  2  2  3
  2  3  1  0
  2  4  1  0
  4  5  1  0
  5  6  2  3
  6  7  1  0
  7  8  1  0
  8  9  1  0
  9 10  2  0
  6 11  1  0
 11 12  1  0
 12 13  1  0
 13 14  1  0
 14 15  1  0
 15 16  1  0
 16 17  1  0
 17 18  1  0
 16 19  1  0
 19 20  1  0
 20 21  2  3
 20 22  1  0
 22 23  1  0
 23 24  1  0
 24 25  1  0
 24 12  1  0
  1 26  1  0
  1 27  1  0
  3 28  1  0
  3 29  1  0
  3 30  1  0
  4 31  1  0
  4 32  1  0
  7 33  1  0
  8 34  1  0
  9 35  1  0
 11 36  1  0
 12 37  1  1
 13 38  1  0
 13 39  1  0
 14 40  1  0
 14 41  1  0
 15 42  1  0
 15 43  1  0
 16 44  1  1
 17 45  1  0
 17 46  1  0
 18 47  1  0
 18 48  1  0
 18 49  1  0
 19 50  1  0
 19 51  1  0
 21 52  1  0
 21 53  1  0
 22 54  1  0
 22 55  1  0
 23 56  1  0
 23 57  1  0
 24 58  1  1
 25 59  1  0
 25 60  1  0
 25 61  1  0
M  END
$$$$
