
     RDKit          2D

 74 76  0  0  0  0  0  0  0  0999 V2000
   10.8332    3.9903    0.0000 C   0  0  0  0  0  0  0  0  0  0  0  0
   11.1670    2.5279    0.0000 N   0  0  0  0  0  0  0  0  0  0  0  0
   10.0674    1.5077    0.0000 C   0  0  0  0  0  0  0  0  0  0  0  0
    9.0472    2.6073    0.0000 N   0  0  0  0  0  2  0  0  0  0  0  0
    7.9476    1.5870    0.0000 C   0  0  0  0  0  0  0  0  0  0  0  0
    6.9273    2.6866    0.0000 N   0  0  0  0  0  0  0  0  0  0  0  0
    5.4649    2.3528    0.0000 C   0  0  0  0  0  0  0  0  0  0  0  0
    4.0025    2.0190    0.0000 C   0  0  0  0  0  0  0  0  0  0  0  0
    2.5401    1.6852    0.0000 C   0  0  0  0  0  0  0  0  0  0  0  0
    1.0777    1.3515    0.0000 C   0  0  0  0  0  0  0  0  0  0  0  0
    1.7286    0.0000    0.0000 C   0  0  0  0  0  0  0  0  0  0  0  0
    1.0777   -1.3515    0.0000 C   0  0  0  0  0  0  0  0  0  0  0  0
   -0.3846   -1.6852    0.0000 C   0  0  0  0  0  0  0  0  0  0  0  0
   -1.5574   -0.7500    0.0000 O   0  0  0  0  0  0  0  0  0  0  0  0
   -1.5574    0.7500    0.0000 C   0  0  0  0  0  0  0  0  0  0  0  0
   -0.3846    1.6852    0.0000 C   0  0  0  0  0  0  0  0  0  0  0  0
    0.2662    3.0367    0.0000 C   0  0  0  0  0  0  0  0  0  0  0  0
    0.4155    4.5292    0.0000 C   0  0  0  0  0  0  0  0  0  0  0  0
   -0.9517    3.9123    0.0000 C   0  0  0  0  0  0  0  0  0  0  0  0
   -2.0255    2.8649    0.0000 C   0  0  0  0  0  0  0  0  0  0  0  0
   -0.9782    1.7911    0.0000 N   0  0  0  0  0  0  0  0  0  0  0  0
   -3.0729    3.9387    0.0000 O   0  0  0  0  0  0  0  0  0  0  0  0
   -4.5265    3.5686    0.0000 C   0  0  0  0  0  0  0  0  0  0  0  0
   -5.9801    3.1985    0.0000 C   0  0  0  0  0  0  0  0  0  0  0  0
   -7.4337    2.8283    0.0000 C   0  0  0  0  0  0  0  0  0  0  0  0
   -8.8873    2.4582    0.0000 C   0  0  0  0  0  0  0  0  0  0  0  0
  -10.3410    2.0881    0.0000 S   0  0  0  0  0  0  0  0  0  0  0  0
    6.8480    0.5667    0.0000 N   0  0  0  0  0  0  0  0  0  0  0  0
    5.4146    1.0089    0.0000 C   0  0  0  0  0  0  0  0  0  0  0  0
    4.9725   -0.4245    0.0000 N   0  0  0  0  0  0  0  0  0  0  0  0
    3.9169    1.0910    0.0000 Cl  0  0  0  0  0  0  0  0  0  0  0  0
    8.9678    0.4874    0.0000 N   0  0  0  0  0  2  0  0  0  0  0  0
   12.2956    4.3241    0.0000 H   0  0  0  0  0  0  0  0  0  0  0  0
    9.3708    3.6566    0.0000 H   0  0  0  0  0  0  0  0  0  0  0  0
   10.4994    5.4527    0.0000 H   0  0  0  0  0  0  0  0  0  0  0  0
   12.6003    2.0858    0.0000 H   0  0  0  0  0  0  0  0  0  0  0  0
   11.0877    0.4081    0.0000 H   0  0  0  0  0  0  0  0  0  0  0  0
    7.3694    4.1199    0.0000 H   0  0  0  0  0  0  0  0  0  0  0  0
    5.1311    3.8152    0.0000 H   0  0  0  0  0  0  0  0  0  0  0  0
    5.4349    0.8531    0.0000 H   0  0  0  0  0  0  0  0  0  0  0  0
    4.3363    0.5566    0.0000 H   0  0  0  0  0  0  0  0  0  0  0  0
    3.6688    3.4814    0.0000 H   0  0  0  0  0  0  0  0  0  0  0  0
    2.3871    3.1774    0.0000 H   0  0  0  0  0  0  0  0  0  0  0  0
    3.0497    0.2744    0.0000 H   0  0  0  0  0  0  0  0  0  0  0  0
    1.2606    2.8403    0.0000 H   0  0  0  0  0  0  0  0  0  0  0  0
    3.0066    0.7853    0.0000 H   0  0  0  0  0  0  0  0  0  0  0  0
    2.9013   -0.9352    0.0000 H   0  0  0  0  0  0  0  0  0  0  0  0
    2.4885   -1.8610    0.0000 H   0  0  0  0  0  0  0  0  0  0  0  0
    1.2606   -2.8403    0.0000 H   0  0  0  0  0  0  0  0  0  0  0  0
    0.0966   -3.1059    0.0000 H   0  0  0  0  0  0  0  0  0  0  0  0
   -1.5574   -2.6205    0.0000 H   0  0  0  0  0  0  0  0  0  0  0  0
   -3.0198    0.4162    0.0000 H   0  0  0  0  0  0  0  0  0  0  0  0
   -2.6494    1.7784    0.0000 H   0  0  0  0  0  0  0  0  0  0  0  0
   -1.6626    2.4705    0.0000 H   0  0  0  0  0  0  0  0  0  0  0  0
    1.7655    2.9919    0.0000 H   0  0  0  0  0  0  0  0  0  0  0  0
    1.9113    4.6413    0.0000 H   0  0  0  0  0  0  0  0  0  0  0  0
    0.0454    5.9829    0.0000 H   0  0  0  0  0  0  0  0  0  0  0  0
   -1.7967    5.1517    0.0000 H   0  0  0  0  0  0  0  0  0  0  0  0
   -3.0993    1.8176    0.0000 H   0  0  0  0  0  0  0  0  0  0  0  0
   -1.7218    0.4884    0.0000 H   0  0  0  0  0  0  0  0  0  0  0  0
    0.4754    2.1613    0.0000 H   0  0  0  0  0  0  0  0  0  0  0  0
   -4.8966    5.0222    0.0000 H   0  0  0  0  0  0  0  0  0  0  0  0
   -4.1564    2.1150    0.0000 H   0  0  0  0  0  0  0  0  0  0  0  0
   -5.6100    1.7449    0.0000 H   0  0  0  0  0  0  0  0  0  0  0  0
   -6.3502    4.6521    0.0000 H   0  0  0  0  0  0  0  0  0  0  0  0
   -7.0636    1.3747    0.0000 H   0  0  0  0  0  0  0  0  0  0  0  0
   -7.8039    4.2820    0.0000 H   0  0  0  0  0  0  0  0  0  0  0  0
   -9.2575    3.9118    0.0000 H   0  0  0  0  0  0  0  0  0  0  0  0
   -8.5172    1.0046    0.0000 H   0  0  0  0  0  0  0  0  0  0  0  0
  -11.3883    3.1619    0.0000 H   0  0  0  0  0  0  0  0  0  0  0  0
    7.1818   -0.8956    0.0000 H   0  0  0  0  0  0  0  0  0  0  0  0
    5.4968    2.5066    0.0000 H   0  0  0  0  0  0  0  0  0  0  0  0
    3.5617   -0.9340    0.0000 H   0  0  0  0  0  0  0  0  0  0  0  0
    5.9928   -1.5241    0.0000 H   0  0  0  0  0  0  0  0  0  0  0  0
  1  2  1  0
  2  3  1  0
  3  4  1  0
  4  5  1  0
  5  6  1  1
  6  7  1  0
  7  8  1  0
  8  9  1  0
  9 10  1  0
 10 11  1  0
 11 12  1  0
 12 13  1  0
 13 14  1  0
 14 15  1  0
 15 16  1  0
 16 17  1  0
 17 18  1  0
 18 19  1  0
 19 20  1  0
 20 21  1  0
 20 22  1  0
 22 23  1  0
 23 24  1  0
 24 25  1  0
 25 26  1  0
 26 27  1  0
  5 28  1  0
 28 29  1  0
 29 30  1  0
 29 31  1  0
  5 32  1  0
 32  3  1  0
 16 10  1  0
 19 17  1  0
  1 33  1  0
  1 34  1  0
  1 35  1  0
  2 36  1  0
  3 37  1  1
  6 38  1  0
  7 39  1  0
  7 40  1  0
  8 41  1  0
  8 42  1  0
  9 43  1  0
  9 44  1  0
 10 45  1  1
 11 46  1  0
 11 47  1  0
 12 48  1  0
 12 49  1  0
 13 50  1  0
 13 51  1  0
 15 52  1  0
 15 53  1  0
 16 54  1  1
 17 55  1  1
 18 56  1  0
 18 57  1  0
 19 58  1  6
 20 59  1  6
 21 60  1  0
 21 61  1  0
 23 62  1  0
 23 63  1  0
 24 64  1  0
 24 65  1  0
 25 66  1  0
 25 67  1  0
 26 68  1  0
 26 69  1  0
 27 70  1  0
 28 71  1  0
 29 72  1  6
 30 73  1  0
 30 74  1  0
M  RAD  2   4   2  32   2
M  END
$$$$
