
     RDKit          2D

 36 37  0  0  0  0  0  0  0  0999 V2000
   -3.1981   -6.7094    0.0000 C   0  0  0  0  0  0  0  0  0  0  0  0
   -1.8991   -7.4594    0.0000 C   0  0  0  0  0  0  0  0  0  0  0  0
   -0.6000   -8.2094    0.0000 C   0  0  0  0  0  0  0  0  0  0  0  0
    0.6990   -8.9594    0.0000 O   0  0  0  0  0  0  0  0  0  0  0  0
   -1.1491   -6.1603    0.0000 C   0  0  0  0  0  0  0  0  0  0  0  0
   -2.4481   -5.4103    0.0000 O   0  0  0  0  0  0  0  0  0  0  0  0
   -0.3991   -4.8613    0.0000 C   0  0  0  0  0  0  0  0  0  0  0  0
    0.9000   -5.6113    0.0000 O   0  0  0  0  0  0  0  0  0  0  0  0
    0.3509   -3.5623    0.0000 C   0  0  0  0  0  0  0  0  0  0  0  0
    1.7605   -4.0753    0.0000 Sb  0  0  0  0  0  3  0  0  0  0  0  0
    1.5000   -2.5981    0.0000 C   0  0  0  0  0  0  0  0  0  0  0  0
    0.7500   -1.2990    0.0000 C   0  0  0  0  0  0  0  0  0  0  0  0
    1.5000    0.0000    0.0000 C   0  0  0  0  0  0  0  0  0  0  0  0
    0.7500    1.2990    0.0000 C   0  0  0  0  0  0  0  0  0  0  0  0
   -0.7500    1.2990    0.0000 C   0  0  0  0  0  0  0  0  0  0  0  0
   -1.5000    0.0000    0.0000 C   0  0  0  0  0  0  0  0  0  0  0  0
   -0.7500   -1.2990    0.0000 C   0  0  0  0  0  0  0  0  0  0  0  0
   -4.5789   -6.1233    0.0000 H   0  0  0  0  0  0  0  0  0  0  0  0
   -3.9481   -8.0084    0.0000 H   0  0  0  0  0  0  0  0  0  0  0  0
   -2.9784   -5.9431    0.0000 H   0  0  0  0  0  0  0  0  0  0  0  0
   -2.6491   -8.7584    0.0000 H   0  0  0  0  0  0  0  0  0  0  0  0
   -1.3500   -9.5084    0.0000 H   0  0  0  0  0  0  0  0  0  0  0  0
    0.4420   -7.1304    0.0000 H   0  0  0  0  0  0  0  0  0  0  0  0
    0.6990  -10.4594    0.0000 H   0  0  0  0  0  0  0  0  0  0  0  0
    0.1500   -6.9103    0.0000 H   0  0  0  0  0  0  0  0  0  0  0  0
   -3.9297   -5.6449    0.0000 H   0  0  0  0  0  0  0  0  0  0  0  0
   -1.6981   -4.1113    0.0000 H   0  0  0  0  0  0  0  0  0  0  0  0
    1.2629   -7.0667    0.0000 H   0  0  0  0  0  0  0  0  0  0  0  0
   -0.9071   -2.7453    0.0000 H   0  0  0  0  0  0  0  0  0  0  0  0
    2.7247   -5.2244    0.0000 H   0  0  0  0  0  0  0  0  0  0  0  0
    2.9095   -2.0850    0.0000 H   0  0  0  0  0  0  0  0  0  0  0  0
    3.0000    0.0000    0.0000 H   0  0  0  0  0  0  0  0  0  0  0  0
    1.5000    2.5981    0.0000 H   0  0  0  0  0  0  0  0  0  0  0  0
   -1.5000    2.5981    0.0000 H   0  0  0  0  0  0  0  0  0  0  0  0
   -3.0000    0.0000    0.0000 H   0  0  0  0  0  0  0  0  0  0  0  0
   -1.6528   -2.4970    0.0000 H   0  0  0  0  0  0  0  0  0  0  0  0
  1  2  1  0
  2  3  1  0
  3  4  1  0
  2  5  1  0
  5  6  1  0
  5  7  1  0
  7  8  1  0
  7  9  1  0
  9 10  1  0
 10 11  1  0
 11 12  1  0
 12 13  2  0
 13 14  1  0
 14 15  2  0
 15 16  1  0
 16 17  2  0
 11  9  1  0
 17 12  1  0
  1 18  1  0
  1 19  1  0
  1 20  1  0
  2 21  1  0
  3 22  1  0
  3 23  1  0
  4 24  1  0
  5 25  1  0
  6 26  1  0
  7 27  1  0
  8 28  1  0
  9 29  1  0
 10 30  1  0
 11 31  1  0
 13 32  1  0
 14 33  1  0
 15 34  1  0
 16 35  1  0
 17 36  1  0
M  END
$$$$
