
     RDKit          2D

 44 48  0  0  0  0  0  0  0  0999 V2000
    1.6019    8.1879    0.0000 C   0  0  0  0  0  0  0  0  0  0  0  0
    0.7202    6.9744    0.0000 C   0  0  0  0  0  0  0  0  0  0  0  0
   -0.1614    5.7609    0.0000 C   0  0  0  0  0  0  0  0  0  0  0  0
   -1.0431    4.5474    0.0000 O   0  0  0  0  0  0  0  0  0  0  0  0
   -0.4330    3.1771    0.0000 C   0  0  0  0  0  0  0  0  0  0  0  0
    0.4487    1.9635    0.0000 C   0  0  0  0  0  0  0  0  0  0  0  0
   -0.4330    0.7500    0.0000 C   0  0  0  0  0  0  0  0  0  0  0  0
    0.8660    0.0000    0.0000 C   0  0  0  0  0  0  0  0  0  0  0  0
   -0.4330   -0.7500    0.0000 C   0  0  0  0  0  0  0  0  0  0  0  0
   -1.8596   -1.2135    0.0000 C   0  0  0  0  0  0  0  0  0  0  0  0
   -2.7413    0.0000    0.0000 C   0  0  0  0  0  0  0  0  0  0  0  0
   -1.8596    2.7135    0.0000 C   0  0  0  0  0  0  0  0  0  0  0  0
   -1.8596    1.2135    0.0000 C   0  0  0  0  0  0  0  0  0  0  0  0
    2.4836    9.4015    0.0000 C   0  0  0  0  0  0  0  0  0  0  0  0
    3.3653   10.6150    0.0000 C   0  0  0  0  0  0  0  0  0  0  0  0
    4.2469   11.8285    0.0000 C   0  0  0  0  0  0  0  0  0  0  0  0
    5.4905   12.6673    0.0000 C   0  0  0  0  0  0  0  0  0  0  0  0
    5.5951   11.1710    0.0000 C   0  0  0  0  0  0  0  0  0  0  0  0
    0.3884    9.0696    0.0000 H   0  0  0  0  0  0  0  0  0  0  0  0
    2.8154    7.3063    0.0000 H   0  0  0  0  0  0  0  0  0  0  0  0
   -0.4933    7.8561    0.0000 H   0  0  0  0  0  0  0  0  0  0  0  0
    1.9338    6.0927    0.0000 H   0  0  0  0  0  0  0  0  0  0  0  0
    1.0521    4.8792    0.0000 H   0  0  0  0  0  0  0  0  0  0  0  0
   -1.3750    6.6426    0.0000 H   0  0  0  0  0  0  0  0  0  0  0  0
    0.8660    3.9271    0.0000 H   0  0  0  0  0  0  0  0  0  0  0  0
    1.5634    2.9672    0.0000 H   0  0  0  0  0  0  0  0  0  0  0  0
    1.1742    1.4555    0.0000 H   0  0  0  0  0  0  0  0  0  0  0  0
    1.5138    0.6041    0.0000 H   0  0  0  0  0  0  0  0  0  0  0  0
    1.8302   -1.1491    0.0000 H   0  0  0  0  0  0  0  0  0  0  0  0
    0.1771   -2.1203    0.0000 H   0  0  0  0  0  0  0  0  0  0  0  0
   -1.2495   -2.5838    0.0000 H   0  0  0  0  0  0  0  0  0  0  0  0
   -3.1586   -1.9635    0.0000 H   0  0  0  0  0  0  0  0  0  0  0  0
   -4.2413    0.0000    0.0000 H   0  0  0  0  0  0  0  0  0  0  0  0
   -3.0731    3.5952    0.0000 H   0  0  0  0  0  0  0  0  0  0  0  0
   -3.2862    1.6771    0.0000 H   0  0  0  0  0  0  0  0  0  0  0  0
    3.6971    8.5198    0.0000 H   0  0  0  0  0  0  0  0  0  0  0  0
    1.2701   10.2831    0.0000 H   0  0  0  0  0  0  0  0  0  0  0  0
    2.1517   11.4967    0.0000 H   0  0  0  0  0  0  0  0  0  0  0  0
    4.3526    9.6943    0.0000 H   0  0  0  0  0  0  0  0  0  0  0  0
    3.2050   12.9075    0.0000 H   0  0  0  0  0  0  0  0  0  0  0  0
    4.8804   14.0376    0.0000 H   0  0  0  0  0  0  0  0  0  0  0  0
    6.9459   13.0302    0.0000 H   0  0  0  0  0  0  0  0  0  0  0  0
    7.0869   11.0142    0.0000 H   0  0  0  0  0  0  0  0  0  0  0  0
    5.3840    9.8376    0.0000 H   0  0  0  0  0  0  0  0  0  0  0  0
  1  2  1  0
  2  3  1  0
  3  4  1  0
  4  5  1  0
  5  6  1  0
  7  6  1  1
  7  8  1  0
  8  9  1  0
  9 10  1  0
 10 11  1  0
 11 12  1  0
 12 13  1  0
  1 14  1  0
 14 15  1  0
 15 16  1  0
 16 17  1  0
 17 18  1  0
 12  5  1  0
 18 16  1  0
  9  7  1  0
 13 11  1  0
 13  7  1  0
  1 19  1  0
  1 20  1  0
  2 21  1  0
  2 22  1  0
  3 23  1  0
  3 24  1  0
  5 25  1  6
  6 26  1  0
  6 27  1  0
  8 28  1  0
  8 29  1  0
  9 30  1  1
 10 31  1  0
 10 32  1  0
 11 33  1  1
 12 34  1  1
 13 35  1  1
 14 36  1  0
 14 37  1  0
 15 38  1  0
 15 39  1  0
 16 40  1  0
 17 41  1  0
 17 42  1  0
 18 43  1  0
 18 44  1  0
M  END
$$$$
