
     RDKit          2D

 73 77  0  0  0  0  0  0  0  0999 V2000
   11.1895    0.5011    0.0000 C   0  0  0  0  0  0  0  0  0  0  0  0
   10.2938    1.7043    0.0000 C   0  0  0  0  0  0  0  0  0  0  0  0
    9.3980    2.9074    0.0000 C   0  0  0  0  0  0  0  0  0  0  0  0
    8.5023    4.1106    0.0000 C   0  0  0  0  0  0  0  0  0  0  0  0
    7.6066    5.3138    0.0000 C   0  0  0  0  0  0  0  0  0  0  0  0
    6.4034    4.4181    0.0000 C   0  0  0  0  0  0  0  0  0  0  0  0
    7.2991    3.2149    0.0000 C   0  0  0  0  0  0  0  0  0  0  0  0
    6.0959    2.3192    0.0000 C   0  0  0  0  0  0  0  0  0  0  0  0
    4.8928    1.4234    0.0000 C   0  0  0  0  0  0  0  0  0  0  0  0
    3.6896    0.5277    0.0000 C   0  0  0  0  0  0  0  0  0  0  0  0
    2.4864   -0.3681    0.0000 C   0  0  0  0  0  0  0  0  0  0  0  0
    1.2832   -1.2638    0.0000 C   0  0  0  0  0  0  0  0  0  0  0  0
    0.0800   -2.1595    0.0000 C   0  0  0  0  0  0  0  0  0  0  0  0
   -0.4330   -3.5691    0.0000 C   0  0  0  0  0  0  0  0  0  0  0  0
   -1.7321   -4.3191    0.0000 C   0  0  0  0  0  0  0  0  0  0  0  0
   -3.2093   -4.0586    0.0000 C   0  0  0  0  0  0  0  0  0  0  0  0
   -3.7223   -5.4681    0.0000 C   0  0  0  0  0  0  0  0  0  0  0  0
   -5.1995   -5.7286    0.0000 C   0  0  0  0  0  0  0  0  0  0  0  0
   -6.1637   -4.5796    0.0000 C   0  0  0  0  0  0  0  0  0  0  0  0
   -5.6507   -3.1700    0.0000 C   0  0  0  0  0  0  0  0  0  0  0  0
   -4.1734   -2.9095    0.0000 C   0  0  0  0  0  0  0  0  0  0  0  0
   -4.1734   -1.4095    0.0000 C   0  0  0  0  0  0  0  0  0  0  0  0
   -3.2093   -0.2605    0.0000 C   0  0  0  0  0  0  0  0  0  0  0  0
   -1.7321    0.0000    0.0000 C   0  0  0  0  0  0  0  0  0  0  0  0
   -0.4330    0.7500    0.0000 C   0  0  0  0  0  0  0  0  0  0  0  0
    0.8660    0.0000    0.0000 C   0  0  0  0  0  0  0  0  0  0  0  0
   -0.4330   -0.7500    0.0000 C   0  0  0  0  0  0  0  0  0  0  0  0
   12.0853   -0.7021    0.0000 H   0  0  0  0  0  0  0  0  0  0  0  0
    9.9863   -0.3947    0.0000 H   0  0  0  0  0  0  0  0  0  0  0  0
   12.3927    1.3968    0.0000 H   0  0  0  0  0  0  0  0  0  0  0  0
    9.0906    0.8085    0.0000 H   0  0  0  0  0  0  0  0  0  0  0  0
   11.4970    2.6000    0.0000 H   0  0  0  0  0  0  0  0  0  0  0  0
    8.7574    2.2959    0.0000 H   0  0  0  0  0  0  0  0  0  0  0  0
   10.6012    3.8032    0.0000 H   0  0  0  0  0  0  0  0  0  0  0  0
    9.7055    5.0064    0.0000 H   0  0  0  0  0  0  0  0  0  0  0  0
    8.8098    6.2095    0.0000 H   0  0  0  0  0  0  0  0  0  0  0  0
    6.7108    6.5170    0.0000 H   0  0  0  0  0  0  0  0  0  0  0  0
    5.5077    5.6213    0.0000 H   0  0  0  0  0  0  0  0  0  0  0  0
    5.6337    3.9797    0.0000 H   0  0  0  0  0  0  0  0  0  0  0  0
    7.7375    2.4452    0.0000 H   0  0  0  0  0  0  0  0  0  0  0  0
    5.4844    2.9598    0.0000 H   0  0  0  0  0  0  0  0  0  0  0  0
    6.9917    1.1160    0.0000 H   0  0  0  0  0  0  0  0  0  0  0  0
    5.7885    0.2202    0.0000 H   0  0  0  0  0  0  0  0  0  0  0  0
    3.9970    2.6266    0.0000 H   0  0  0  0  0  0  0  0  0  0  0  0
    2.7938    1.7309    0.0000 H   0  0  0  0  0  0  0  0  0  0  0  0
    4.5853   -0.6755    0.0000 H   0  0  0  0  0  0  0  0  0  0  0  0
    1.7440    0.9353    0.0000 H   0  0  0  0  0  0  0  0  0  0  0  0
    3.3821   -1.5712    0.0000 H   0  0  0  0  0  0  0  0  0  0  0  0
    0.9419   -0.4465    0.0000 H   0  0  0  0  0  0  0  0  0  0  0  0
    2.1789   -2.4670    0.0000 H   0  0  0  0  0  0  0  0  0  0  0  0
    1.3834   -2.9019    0.0000 H   0  0  0  0  0  0  0  0  0  0  0  0
    1.0427   -3.8382    0.0000 H   0  0  0  0  0  0  0  0  0  0  0  0
    0.0882   -4.9756    0.0000 H   0  0  0  0  0  0  0  0  0  0  0  0
   -0.7746   -5.4738    0.0000 H   0  0  0  0  0  0  0  0  0  0  0  0
   -2.2368   -5.7316    0.0000 H   0  0  0  0  0  0  0  0  0  0  0  0
   -2.0602   -3.0944    0.0000 H   0  0  0  0  0  0  0  0  0  0  0  0
   -3.7223   -6.9681    0.0000 H   0  0  0  0  0  0  0  0  0  0  0  0
   -2.2878   -5.9067    0.0000 H   0  0  0  0  0  0  0  0  0  0  0  0
   -6.4985   -6.4786    0.0000 H   0  0  0  0  0  0  0  0  0  0  0  0
   -4.6865   -7.1382    0.0000 H   0  0  0  0  0  0  0  0  0  0  0  0
   -7.4627   -3.8296    0.0000 H   0  0  0  0  0  0  0  0  0  0  0  0
   -7.1279   -5.7286    0.0000 H   0  0  0  0  0  0  0  0  0  0  0  0
   -5.8335   -1.6812    0.0000 H   0  0  0  0  0  0  0  0  0  0  0  0
   -7.1279   -2.9095    0.0000 H   0  0  0  0  0  0  0  0  0  0  0  0
   -4.9234   -4.2086    0.0000 H   0  0  0  0  0  0  0  0  0  0  0  0
   -5.6522   -1.6614    0.0000 H   0  0  0  0  0  0  0  0  0  0  0  0
   -5.1443   -0.2661    0.0000 H   0  0  0  0  0  0  0  0  0  0  0  0
   -4.5039    0.4971    0.0000 H   0  0  0  0  0  0  0  0  0  0  0  0
   -3.2180    1.2395    0.0000 H   0  0  0  0  0  0  0  0  0  0  0  0
   -2.0694    1.4616    0.0000 H   0  0  0  0  0  0  0  0  0  0  0  0
   -0.4330    2.2500    0.0000 H   0  0  0  0  0  0  0  0  0  0  0  0
    1.6830    1.2580    0.0000 H   0  0  0  0  0  0  0  0  0  0  0  0
    2.0796   -0.8816    0.0000 H   0  0  0  0  0  0  0  0  0  0  0  0
  1  2  1  0
  2  3  1  0
  3  4  1  0
  4  5  1  0
  5  6  1  0
  6  7  1  0
  7  8  1  0
  8  9  1  0
  9 10  1  0
 10 11  1  0
 11 12  1  0
 12 13  1  0
 13 14  1  0
 14 15  1  0
 15 16  1  0
 16 17  1  0
 17 18  1  0
 18 19  1  0
 19 20  1  0
 20 21  1  0
 21 22  1  0
 22 23  1  0
 23 24  1  0
 24 25  1  0
 25 26  1  0
 27 26  1  1
  7  4  1  0
 27 13  1  0
 21 16  1  0
 27 24  1  0
 27 25  1  0
  1 28  1  0
  1 29  1  0
  1 30  1  0
  2 31  1  0
  2 32  1  0
  3 33  1  0
  3 34  1  0
  4 35  1  6
  5 36  1  0
  5 37  1  0
  6 38  1  0
  6 39  1  0
  7 40  1  6
  8 41  1  0
  8 42  1  0
  9 43  1  0
  9 44  1  0
 10 45  1  0
 10 46  1  0
 11 47  1  0
 11 48  1  0
 12 49  1  0
 12 50  1  0
 13 51  1  6
 14 52  1  0
 14 53  1  0
 15 54  1  0
 15 55  1  0
 16 56  1  1
 17 57  1  0
 17 58  1  0
 18 59  1  0
 18 60  1  0
 19 61  1  0
 19 62  1  0
 20 63  1  0
 20 64  1  0
 21 65  1  1
 22 66  1  0
 22 67  1  0
 23 68  1  0
 23 69  1  0
 24 70  1  6
 25 71  1  6
 26 72  1  0
 26 73  1  0
M  END
$$$$
