
     RDKit          2D

 37 40  0  0  0  0  0  0  0  0999 V2000
   -3.0682    2.8515    0.0000 C   0  0  0  0  0  0  0  0  0  0  0  0
   -3.0682    1.3515    0.0000 C   0  0  0  0  0  0  0  0  0  0  0  0
   -1.6058    1.6852    0.0000 C   0  0  0  0  0  0  0  0  0  0  0  0
   -0.4330    0.7500    0.0000 C   0  0  0  0  0  0  0  0  0  0  0  0
    0.8660    0.0000    0.0000 C   0  0  0  0  0  0  0  0  0  0  0  0
   -0.4330   -0.7500    0.0000 C   0  0  0  0  0  0  0  0  0  0  0  0
   -1.6058   -1.6852    0.0000 C   0  0  0  0  0  0  0  0  0  0  0  0
   -2.6260   -2.7848    0.0000 C   0  0  0  0  0  0  0  0  0  0  0  0
   -4.0594   -3.2269    0.0000 C   0  0  0  0  0  0  0  0  0  0  0  0
   -5.4927   -3.6691    0.0000 O   0  0  0  0  0  0  0  0  0  0  0  0
   -4.5015   -1.7936    0.0000 N   0  0  0  0  0  0  0  0  0  0  0  0
   -5.8277   -1.0927    0.0000 C   0  0  0  0  0  0  0  0  0  0  0  0
   -7.1539   -0.3918    0.0000 C   0  0  0  0  0  0  0  0  0  0  0  0
   -7.2099    1.1072    0.0000 O   0  0  0  0  0  0  0  0  0  0  0  0
   -8.4239   -1.1898    0.0000 C   0  0  0  0  0  0  0  0  0  0  0  0
   -9.7501   -0.4889    0.0000 O   0  0  0  0  0  0  0  0  0  0  0  0
   -3.0682   -1.3515    0.0000 C   0  0  0  0  0  0  0  0  0  0  0  0
   -3.7190    0.0000    0.0000 C   0  0  0  0  0  0  0  0  0  0  0  0
   -3.0682    4.3515    0.0000 H   0  0  0  0  0  0  0  0  0  0  0  0
   -2.2769    2.9486    0.0000 H   0  0  0  0  0  0  0  0  0  0  0  0
   -4.5682    2.8515    0.0000 H   0  0  0  0  0  0  0  0  0  0  0  0
   -4.4790    1.8610    0.0000 H   0  0  0  0  0  0  0  0  0  0  0  0
   -0.4330    2.6205    0.0000 H   0  0  0  0  0  0  0  0  0  0  0  0
   -1.8615    2.4403    0.0000 H   0  0  0  0  0  0  0  0  0  0  0  0
    0.4120    1.9894    0.0000 H   0  0  0  0  0  0  0  0  0  0  0  0
    1.8302    1.1491    0.0000 H   0  0  0  0  0  0  0  0  0  0  0  0
    1.8302   -1.1491    0.0000 H   0  0  0  0  0  0  0  0  0  0  0  0
    0.4120   -1.9894    0.0000 H   0  0  0  0  0  0  0  0  0  0  0  0
   -0.5855   -2.7848    0.0000 H   0  0  0  0  0  0  0  0  0  0  0  0
   -1.8280   -4.0549    0.0000 H   0  0  0  0  0  0  0  0  0  0  0  0
   -3.6172   -4.6603    0.0000 H   0  0  0  0  0  0  0  0  0  0  0  0
   -5.8265   -5.1315    0.0000 H   0  0  0  0  0  0  0  0  0  0  0  0
   -5.2937    0.3090    0.0000 H   0  0  0  0  0  0  0  0  0  0  0  0
   -6.5286   -2.4189    0.0000 H   0  0  0  0  0  0  0  0  0  0  0  0
   -8.3679   -2.6888    0.0000 H   0  0  0  0  0  0  0  0  0  0  0  0
   -4.8917    0.9352    0.0000 H   0  0  0  0  0  0  0  0  0  0  0  0
   -4.8917   -0.9352    0.0000 H   0  0  0  0  0  0  0  0  0  0  0  0
  1  2  1  0
  2  3  1  0
  3  4  1  0
  4  5  1  0
  5  6  1  0
  6  7  1  0
  7  8  1  0
  8  9  1  0
  9 10  1  0
  9 11  1  0
 11 12  1  0
 12 13  1  0
 13 14  2  0
 13 15  1  0
 15 16  2  0
 11 17  1  0
 17 18  1  0
 18  2  1  0
  6  4  1  0
 17  7  1  0
 17  8  1  0
  1 19  1  0
  1 20  1  0
  1 21  1  0
  2 22  1  0
  3 23  1  0
  3 24  1  0
  4 25  1  0
  5 26  1  0
  5 27  1  0
  6 28  1  0
  7 29  1  0
  8 30  1  0
  9 31  1  0
 10 32  1  0
 12 33  1  0
 12 34  1  0
 15 35  1  0
 18 36  1  0
 18 37  1  0
M  END
$$$$
