
     RDKit          2D

 76 81  0  0  0  0  0  0  0  0999 V2000
   -0.8805   -9.3576    0.0000 C   0  0  0  0  0  0  0  0  0  0  0  0
    0.1232   -8.2429    0.0000 C   0  0  0  0  0  0  0  0  0  0  0  0
   -0.3404   -6.8163    0.0000 N   0  0  0  0  0  0  0  0  0  0  0  0
    1.5904   -8.5548    0.0000 C   0  0  0  0  0  0  0  0  0  0  0  0
    3.0576   -8.8666    0.0000 C   0  0  0  0  0  0  0  0  0  0  0  0
    4.5248   -9.1785    0.0000 C   0  0  0  0  0  0  0  0  0  0  0  0
    3.3695   -7.3994    0.0000 C   0  0  0  0  0  0  0  0  0  0  0  0
    3.6813   -5.9322    0.0000 C   0  0  0  0  0  0  0  0  0  0  0  0
    3.9932   -4.4650    0.0000 C   0  0  0  0  0  0  0  0  0  0  0  0
    4.3051   -2.9977    0.0000 C   0  0  0  0  0  0  0  0  0  0  0  0
    4.6169   -1.5305    0.0000 C   0  0  0  0  0  0  0  0  0  0  0  0
    4.9288   -0.0633    0.0000 C   0  0  0  0  0  0  0  0  0  0  0  0
    5.7237    1.2088    0.0000 C   0  0  0  0  0  0  0  0  0  0  0  0
    6.4279   -0.1157    0.0000 As  0  0  0  0  0  3  0  0  0  0  0  0
    2.5260   -4.1531    0.0000 C   0  0  0  0  0  0  0  0  0  0  0  0
    2.8379   -2.6859    0.0000 N   0  0  0  0  0  0  0  0  0  0  0  0
    4.2644   -2.2224    0.0000 N   0  0  0  0  0  0  0  0  0  0  0  0
    1.0588   -3.8412    0.0000 C   0  0  0  0  0  0  0  0  0  0  0  0
   -0.4085   -3.5294    0.0000 C   0  0  0  0  0  0  0  0  0  0  0  0
   -1.4121   -4.6441    0.0000 C   0  0  0  0  0  0  0  0  0  0  0  0
   -0.8720   -2.1028    0.0000 C   0  0  0  0  0  0  0  0  0  0  0  0
   -1.3355   -0.6762    0.0000 O   0  0  0  0  0  0  0  0  0  0  0  0
   -2.8027   -0.3643    0.0000 C   0  0  0  0  0  0  0  0  0  0  0  0
   -4.0748    0.4305    0.0000 C   0  0  0  0  0  0  0  0  0  0  0  0
   -2.7504    1.1348    0.0000 C   0  0  0  0  0  0  0  0  0  0  0  0
    1.3706   -2.3740    0.0000 C   0  0  0  0  0  0  0  0  0  0  0  0
    1.9807   -1.0037    0.0000 C   0  0  0  0  0  0  0  0  0  0  0  0
    0.8660    0.0000    0.0000 C   0  0  0  0  0  0  0  0  0  0  0  0
   -0.4330    0.7500    0.0000 C   0  0  0  0  0  0  0  0  0  0  0  0
   -1.5477   -1.7537    0.0000 C   0  0  0  0  0  0  0  0  0  0  0  0
   -0.1211   -2.2172    0.0000 C   0  0  0  0  0  0  0  0  0  0  0  0
   -0.4330   -0.7500    0.0000 C   0  0  0  0  0  0  0  0  0  0  0  0
   -2.3477   -9.0457    0.0000 H   0  0  0  0  0  0  0  0  0  0  0  0
   -0.4170  -10.7842    0.0000 H   0  0  0  0  0  0  0  0  0  0  0  0
   -1.8076   -6.5044    0.0000 H   0  0  0  0  0  0  0  0  0  0  0  0
    0.7917   -5.8323    0.0000 H   0  0  0  0  0  0  0  0  0  0  0  0
    1.7211   -7.0605    0.0000 H   0  0  0  0  0  0  0  0  0  0  0  0
    1.2785  -10.0220    0.0000 H   0  0  0  0  0  0  0  0  0  0  0  0
    2.7457  -10.3339    0.0000 H   0  0  0  0  0  0  0  0  0  0  0  0
    5.9921   -9.4904    0.0000 H   0  0  0  0  0  0  0  0  0  0  0  0
    4.2130  -10.6457    0.0000 H   0  0  0  0  0  0  0  0  0  0  0  0
    5.0132   -7.7602    0.0000 H   0  0  0  0  0  0  0  0  0  0  0  0
    1.9512   -6.9110    0.0000 H   0  0  0  0  0  0  0  0  0  0  0  0
    4.8638   -7.5301    0.0000 H   0  0  0  0  0  0  0  0  0  0  0  0
    5.0996   -6.4206    0.0000 H   0  0  0  0  0  0  0  0  0  0  0  0
    5.1756   -6.0629    0.0000 H   0  0  0  0  0  0  0  0  0  0  0  0
    5.4604   -4.7768    0.0000 H   0  0  0  0  0  0  0  0  0  0  0  0
    5.7233   -3.4861    0.0000 H   0  0  0  0  0  0  0  0  0  0  0  0
    3.0471   -2.1807    0.0000 H   0  0  0  0  0  0  0  0  0  0  0  0
    6.0842   -1.8424    0.0000 H   0  0  0  0  0  0  0  0  0  0  0  0
    3.1227   -1.3998    0.0000 H   0  0  0  0  0  0  0  0  0  0  0  0
    3.6169    0.6639    0.0000 H   0  0  0  0  0  0  0  0  0  0  0  0
    4.6090    2.2125    0.0000 H   0  0  0  0  0  0  0  0  0  0  0  0
    6.9057    2.1323    0.0000 H   0  0  0  0  0  0  0  0  0  0  0  0
    7.7000   -0.9105    0.0000 H   0  0  0  0  0  0  0  0  0  0  0  0
    2.2141   -5.6203    0.0000 H   0  0  0  0  0  0  0  0  0  0  0  0
    2.3250   -1.2763    0.0000 H   0  0  0  0  0  0  0  0  0  0  0  0
    3.8508   -0.7805    0.0000 H   0  0  0  0  0  0  0  0  0  0  0  0
    5.4932   -3.0827    0.0000 H   0  0  0  0  0  0  0  0  0  0  0  0
    0.9281   -5.3355    0.0000 H   0  0  0  0  0  0  0  0  0  0  0  0
   -2.8794   -4.3322    0.0000 H   0  0  0  0  0  0  0  0  0  0  0  0
   -0.9486   -6.0707    0.0000 H   0  0  0  0  0  0  0  0  0  0  0  0
   -2.2314   -2.7367    0.0000 H   0  0  0  0  0  0  0  0  0  0  0  0
    0.5546   -1.6393    0.0000 H   0  0  0  0  0  0  0  0  0  0  0  0
   -3.5300   -1.6762    0.0000 H   0  0  0  0  0  0  0  0  0  0  0  0
   -5.0785   -0.6842    0.0000 H   0  0  0  0  0  0  0  0  0  0  0  0
   -4.9983    1.6126    0.0000 H   0  0  0  0  0  0  0  0  0  0  0  0
   -3.2139    2.5613    0.0000 H   0  0  0  0  0  0  0  0  0  0  0  0
   -1.3015    1.5230    0.0000 H   0  0  0  0  0  0  0  0  0  0  0  0
    2.8686   -2.2954    0.0000 H   0  0  0  0  0  0  0  0  0  0  0  0
    3.1787   -1.9065    0.0000 H   0  0  0  0  0  0  0  0  0  0  0  0
    2.7079    0.3083    0.0000 H   0  0  0  0  0  0  0  0  0  0  0  0
    1.7477    1.2135    0.0000 H   0  0  0  0  0  0  0  0  0  0  0  0
   -1.0191    2.1308    0.0000 H   0  0  0  0  0  0  0  0  0  0  0  0
   -3.0150   -2.0656    0.0000 H   0  0  0  0  0  0  0  0  0  0  0  0
   -0.7788   -3.5654    0.0000 H   0  0  0  0  0  0  0  0  0  0  0  0
  1  2  2  3
  2  3  1  0
  2  4  1  0
  4  5  1  0
  5  6  1  0
  5  7  1  0
  7  8  1  0
  8  9  1  0
  9 10  1  0
 10 11  1  0
 11 12  1  0
 12 13  1  0
 13 14  1  0
  9 15  1  0
 15 16  1  0
 16 17  1  0
 15 18  1  0
 18 19  1  0
 19 20  2  3
 19 21  1  0
 21 22  1  0
 22 23  1  0
 23 24  1  0
 24 25  1  0
 18 26  1  0
 26 27  1  0
 27 28  1  0
 28 29  1  0
 29 30  1  0
 30 31  1  0
 31 32  1  0
 14 12  1  0
 25 23  1  0
 31 26  1  0
 32 28  1  1
 32 29  1  0
 32 30  1  0
  1 33  1  0
  1 34  1  0
  3 35  1  0
  3 36  1  0
  4 37  1  0
  4 38  1  0
  5 39  1  1
  6 40  1  0
  6 41  1  0
  6 42  1  0
  7 43  1  0
  7 44  1  0
  8 45  1  0
  8 46  1  0
  9 47  1  1
 10 48  1  0
 10 49  1  0
 11 50  1  0
 11 51  1  0
 12 52  1  1
 13 53  1  0
 13 54  1  0
 14 55  1  0
 15 56  1  6
 16 57  1  0
 17 58  1  0
 17 59  1  0
 18 60  1  1
 20 61  1  0
 20 62  1  0
 21 63  1  0
 21 64  1  0
 23 65  1  0
 24 66  1  0
 24 67  1  0
 25 68  1  0
 25 69  1  0
 26 70  1  6
 27 71  1  0
 27 72  1  0
 28 73  1  6
 29 74  1  6
 30 75  1  6
 31 76  1  6
M  END
$$$$
