
     RDKit          2D

 91 99  0  0  0  0  0  0  0  0999 V2000
    1.5212   -4.8428    0.0000 B   0  0  0  0  0  0  0  0  0  0  0  0
    0.4605   -3.7821    0.0000 C   0  0  0  0  0  0  0  0  0  0  0  0
   -0.9884   -4.1704    0.0000 C   0  0  0  0  0  0  0  0  0  0  0  0
   -1.3766   -5.6192    0.0000 C   0  0  0  0  0  0  0  0  0  0  0  0
   -1.9899   -4.5098    0.0000 C   0  0  0  0  0  0  0  0  0  0  0  0
   -0.0000   -2.5607    0.0000 C   0  0  0  0  0  0  0  0  0  0  0  0
    1.0607   -3.6213    0.0000 C   0  0  0  0  0  0  0  0  0  0  0  0
    2.5607   -3.6213    0.0000 C   0  0  0  0  0  0  0  0  0  0  0  0
    3.8597   -4.3713    0.0000 O   0  0  0  0  0  0  0  0  0  0  0  0
    3.6213   -2.5607    0.0000 C   0  0  0  0  0  0  0  0  0  0  0  0
    5.0702   -2.1724    0.0000 C   0  0  0  0  0  0  0  0  0  0  0  0
    3.6213   -1.0607    0.0000 O   0  0  0  0  0  0  0  0  0  0  0  0
    2.5607   -0.0000    0.0000 C   0  0  0  0  0  0  0  0  0  0  0  0
    1.0607    0.0000    0.0000 C   0  0  0  0  0  0  0  0  0  0  0  0
   -0.0000   -1.0607    0.0000 C   0  0  0  0  0  0  0  0  0  0  0  0
   -1.0607    0.0000    0.0000 P   0  0  0  0  0  0  0  0  0  0  0  0
   -2.3972    0.6810    0.0000 C   0  0  0  0  0  0  0  0  0  0  0  0
   -2.1625    2.1625    0.0000 C   0  0  0  0  0  0  0  0  0  0  0  0
   -3.6605    2.2410    0.0000 O   0  0  0  0  0  0  0  0  0  0  0  0
   -4.3414    3.5775    0.0000 N   0  0  0  0  0  0  0  0  0  0  0  0
   -0.6810    2.3972    0.0000 C   0  0  0  0  0  0  0  0  0  0  0  0
    0.0000    1.0607    0.0000 C   0  0  0  0  0  0  0  0  0  0  0  0
    1.2135    1.9423    0.0000 N   0  0  0  0  0  0  0  0  0  0  0  0
    1.0567    3.4341    0.0000 C   0  0  0  0  0  0  0  0  0  0  0  0
    2.5531    3.3295    0.0000 C   0  0  0  0  0  0  0  0  0  0  0  0
    3.3919    4.5730    0.0000 C   0  0  0  0  0  0  0  0  0  0  0  0
    2.7343    5.9212    0.0000 C   0  0  0  0  0  0  0  0  0  0  0  0
    4.2068    6.2074    0.0000 C   0  0  0  0  0  0  0  0  0  0  0  0
    2.8389    7.4176    0.0000 C   0  0  0  0  0  0  0  0  0  0  0  0
    1.3426    7.5222    0.0000 C   0  0  0  0  0  0  0  0  0  0  0  0
    1.2380    6.0259    0.0000 C   0  0  0  0  0  0  0  0  0  0  0  0
    0.3992    4.7823    0.0000 C   0  0  0  0  0  0  0  0  0  0  0  0
   -0.8143    3.9006    0.0000 C   0  0  0  0  0  0  0  0  0  0  0  0
   -1.4719    5.2488    0.0000 N   0  0  0  0  0  0  0  0  0  0  0  0
   -2.9683    5.3535    0.0000 C   0  0  0  0  0  0  0  0  0  0  0  0
   -4.3386    5.9636    0.0000 N   0  0  0  0  0  2  0  0  0  0  0  0
   -3.8070    4.1099    0.0000 N   0  0  0  0  0  2  0  0  0  0  0  0
   -3.1495    2.7617    0.0000 C   0  0  0  0  0  0  0  0  0  0  0  0
   -2.9927    1.2699    0.0000 C   0  0  0  0  0  0  0  0  0  0  0  0
   -3.0189   -0.2298    0.0000 F   0  0  0  0  0  0  0  0  0  0  0  0
   -1.6531    2.6571    0.0000 S   0  0  0  0  0  0  0  0  0  0  0  0
   -2.0490   -3.1097    0.0000 C   0  0  0  0  0  0  0  0  0  0  0  0
   -2.4373   -4.5586    0.0000 C   0  0  0  0  0  0  0  0  0  0  0  0
    2.5818   -5.9035    0.0000 H   0  0  0  0  0  0  0  0  0  0  0  0
    0.8487   -2.3332    0.0000 H   0  0  0  0  0  0  0  0  0  0  0  0
   -0.9884   -7.0681    0.0000 H   0  0  0  0  0  0  0  0  0  0  0  0
    0.4479   -4.7625    0.0000 H   0  0  0  0  0  0  0  0  0  0  0  0
   -1.4854   -2.3519    0.0000 H   0  0  0  0  0  0  0  0  0  0  0  0
    1.6226   -5.0121    0.0000 H   0  0  0  0  0  0  0  0  0  0  0  0
   -0.1373   -4.5241    0.0000 H   0  0  0  0  0  0  0  0  0  0  0  0
    2.7176   -5.1131    0.0000 H   0  0  0  0  0  0  0  0  0  0  0  0
    3.8597   -5.8713    0.0000 H   0  0  0  0  0  0  0  0  0  0  0  0
    4.6634   -3.6396    0.0000 H   0  0  0  0  0  0  0  0  0  0  0  0
    6.5191   -1.7842    0.0000 H   0  0  0  0  0  0  0  0  0  0  0  0
    5.4584   -3.6213    0.0000 H   0  0  0  0  0  0  0  0  0  0  0  0
    4.6820   -0.7235    0.0000 H   0  0  0  0  0  0  0  0  0  0  0  0
    2.3519    1.4854    0.0000 H   0  0  0  0  0  0  0  0  0  0  0  0
    3.8597    0.7500    0.0000 H   0  0  0  0  0  0  0  0  0  0  0  0
    1.9530    1.2057    0.0000 H   0  0  0  0  0  0  0  0  0  0  0  0
   -1.4455   -1.4615    0.0000 H   0  0  0  0  0  0  0  0  0  0  0  0
   -2.7600   -0.7745    0.0000 H   0  0  0  0  0  0  0  0  0  0  0  0
   -3.8826    0.8897    0.0000 H   0  0  0  0  0  0  0  0  0  0  0  0
   -2.2410    3.6605    0.0000 H   0  0  0  0  0  0  0  0  0  0  0  0
   -5.8394    3.6560    0.0000 H   0  0  0  0  0  0  0  0  0  0  0  0
   -4.2109    5.0718    0.0000 H   0  0  0  0  0  0  0  0  0  0  0  0
   -1.4083    3.7091    0.0000 H   0  0  0  0  0  0  0  0  0  0  0  0
    0.6434    3.1014    0.0000 H   0  0  0  0  0  0  0  0  0  0  0  0
    2.5838    1.3322    0.0000 H   0  0  0  0  0  0  0  0  0  0  0  0
   -0.4248    3.1995    0.0000 H   0  0  0  0  0  0  0  0  0  0  0  0
    3.9234    2.7194    0.0000 H   0  0  0  0  0  0  0  0  0  0  0  0
    2.3703    1.8407    0.0000 H   0  0  0  0  0  0  0  0  0  0  0  0
    4.7038    5.3002    0.0000 H   0  0  0  0  0  0  0  0  0  0  0  0
    4.4709    3.5311    0.0000 H   0  0  0  0  0  0  0  0  0  0  0  0
    5.6792    6.4937    0.0000 H   0  0  0  0  0  0  0  0  0  0  0  0
    4.1022    7.7038    0.0000 H   0  0  0  0  0  0  0  0  0  0  0  0
    4.6703    4.7809    0.0000 H   0  0  0  0  0  0  0  0  0  0  0  0
    2.9436    8.9139    0.0000 H   0  0  0  0  0  0  0  0  0  0  0  0
    4.3369    7.4961    0.0000 H   0  0  0  0  0  0  0  0  0  0  0  0
   -0.1537    7.6268    0.0000 H   0  0  0  0  0  0  0  0  0  0  0  0
    1.4472    9.0186    0.0000 H   0  0  0  0  0  0  0  0  0  0  0  0
   -0.0200    6.8429    0.0000 H   0  0  0  0  0  0  0  0  0  0  0  0
   -0.6798    5.8243    0.0000 H   0  0  0  0  0  0  0  0  0  0  0  0
    0.2647    2.8586    0.0000 H   0  0  0  0  0  0  0  0  0  0  0  0
   -0.9590    6.6584    0.0000 H   0  0  0  0  0  0  0  0  0  0  0  0
   -2.6054    6.8089    0.0000 H   0  0  0  0  0  0  0  0  0  0  0  0
   -4.4954    7.4553    0.0000 H   0  0  0  0  0  0  0  0  0  0  0  0
   -4.5914    2.3483    0.0000 H   0  0  0  0  0  0  0  0  0  0  0  0
   -4.4925    1.2961    0.0000 H   0  0  0  0  0  0  0  0  0  0  0  0
   -1.5009    1.4267    0.0000 H   0  0  0  0  0  0  0  0  0  0  0  0
   -2.4373   -1.6608    0.0000 H   0  0  0  0  0  0  0  0  0  0  0  0
   -3.8862   -4.9468    0.0000 H   0  0  0  0  0  0  0  0  0  0  0  0
  1  2  2  3
  3  2  1  6
  3  4  1  0
  4  5  1  0
  5  6  1  0
  6  7  1  0
  7  8  1  0
  8  9  1  0
  8 10  1  0
 10 11  1  0
 10 12  1  0
 12 13  1  0
 13 14  1  0
 14 15  1  0
 15 16  1  0
 16 17  1  0
 17 18  1  0
 18 19  1  0
 19 20  1  0
 18 21  1  0
 21 22  1  0
 22 23  1  6
 23 24  1  0
 24 25  1  0
 25 26  1  0
 26 27  1  0
 27 28  1  6
 27 29  1  0
 29 30  1  0
 30 31  1  0
 31 32  1  0
 32 33  1  0
 33 34  1  0
 34 35  1  0
 35 36  1  0
 35 37  1  0
 37 38  1  0
 38 39  1  0
 39 40  1  0
 38 41  1  0
  5 42  1  0
 42 43  1  0
 42  3  1  0
 43  3  1  0
 43  4  1  0
 15  6  1  0
 22 16  1  0
 32 24  1  0
 41 33  1  0
 22 14  1  0
 31 27  1  0
  1 44  1  0
  2 45  1  0
  4 46  1  1
  5 47  1  0
  6 48  1  0
  7 49  1  0
  7 50  1  0
  8 51  1  1
  9 52  1  0
 10 53  1  6
 11 54  1  0
 11 55  1  0
 11 56  1  0
 13 57  1  0
 13 58  1  0
 14 59  1  1
 15 60  1  1
 17 61  1  0
 17 62  1  0
 18 63  1  1
 20 64  1  0
 20 65  1  0
 21 66  1  0
 21 67  1  0
 23 68  1  0
 24 69  1  1
 25 70  1  0
 25 71  1  0
 26 72  1  0
 26 73  1  0
 28 74  1  0
 28 75  1  0
 28 76  1  0
 29 77  1  0
 29 78  1  0
 30 79  1  0
 30 80  1  0
 31 81  1  1
 32 82  1  1
 33 83  1  1
 34 84  1  0
 35 85  1  6
 36 86  1  0
 38 87  1  1
 39 88  1  0
 39 89  1  0
 42 90  1  1
 43 91  1  6
M  RAD  2  36   2  37   2
M  END
$$$$
