
     RDKit          2D

 19 20  0  0  0  0  0  0  0  0999 V2000
    1.8302    1.1491    0.0000 O   0  0  0  0  0  0  0  0  0  0  0  0
    0.8660    0.0000    0.0000 C   0  0  0  0  0  0  0  0  0  0  0  0
   -0.4330    0.7500    0.0000 C   0  0  0  0  0  0  0  0  0  0  0  0
   -0.4330   -0.7500    0.0000 C   0  0  0  0  0  0  0  0  0  0  0  0
   -1.9330   -0.7500    0.0000 C   0  0  0  0  0  0  0  0  0  0  0  0
   -2.6830   -2.0490    0.0000 C   0  0  0  0  0  0  0  0  0  0  0  0
   -1.9330   -3.3481    0.0000 C   0  0  0  0  0  0  0  0  0  0  0  0
   -0.4330   -3.3481    0.0000 C   0  0  0  0  0  0  0  0  0  0  0  0
    0.3170   -2.0490    0.0000 C   0  0  0  0  0  0  0  0  0  0  0  0
    3.3074    0.8886    0.0000 H   0  0  0  0  0  0  0  0  0  0  0  0
    1.5858   -0.6712    0.0000 H   0  0  0  0  0  0  0  0  0  0  0  0
   -1.8675    1.1886    0.0000 H   0  0  0  0  0  0  0  0  0  0  0  0
    0.0800    2.1595    0.0000 H   0  0  0  0  0  0  0  0  0  0  0  0
   -2.8358    0.4479    0.0000 H   0  0  0  0  0  0  0  0  0  0  0  0
   -4.1830   -2.0490    0.0000 H   0  0  0  0  0  0  0  0  0  0  0  0
   -2.6830   -4.6471    0.0000 H   0  0  0  0  0  0  0  0  0  0  0  0
    0.3170   -4.6471    0.0000 H   0  0  0  0  0  0  0  0  0  0  0  0
    1.1424   -1.5131    0.0000 H   0  0  0  0  0  0  0  0  0  0  0  0
    1.4661   -3.0132    0.0000 H   0  0  0  0  0  0  0  0  0  0  0  0
  1  2  1  0
  2  3  1  0
  4  3  1  1
  4  5  1  0
  5  6  2  0
  6  7  1  0
  7  8  2  0
  8  9  1  0
  4  2  1  0
  9  4  1  0
  1 10  1  0
  2 11  1  1
  3 12  1  0
  3 13  1  0
  5 14  1  0
  6 15  1  0
  7 16  1  0
  8 17  1  0
  9 18  1  0
  9 19  1  0
M  END
$$$$
