
     RDKit          2D

105110  0  0  0  0  0  0  0  0999 V2000
    7.6423   -1.6148    0.0000 C   0  0  0  0  0  0  0  0  0  0  0  0
    6.2565   -1.0408    0.0000 C   0  0  0  0  0  0  0  0  0  0  0  0
    5.1958   -2.1015    0.0000 C   0  0  0  0  0  0  0  0  0  0  0  0
    6.4948   -2.8515    0.0000 C   0  0  0  0  0  0  0  0  0  0  0  0
    7.7939   -3.6015    0.0000 C   0  0  0  0  0  0  0  0  0  0  0  0
    3.6958   -2.1015    0.0000 C   0  0  0  0  0  0  0  0  0  0  0  0
    4.0840   -3.5503    0.0000 O   0  0  0  0  0  0  0  0  0  0  0  0
    2.6351   -1.0408    0.0000 C   0  0  0  0  0  0  0  0  0  0  0  0
    1.4624   -1.9760    0.0000 C   0  0  0  0  0  0  0  0  0  0  0  0
   -0.0000   -1.0607    0.0000 C   0  0  0  0  0  0  0  0  0  0  0  0
    1.0607    0.0000    0.0000 C   0  0  0  0  0  0  0  0  0  0  0  0
    0.0000    1.0607    0.0000 C   0  0  0  0  0  0  0  0  0  0  0  0
    0.0000    2.5607    0.0000 O   0  0  0  0  0  0  0  0  0  0  0  0
    1.4624    1.3944    0.0000 C   0  0  0  0  0  0  0  0  0  0  0  0
    1.4447    2.2800    0.0000 O   0  0  0  0  0  0  0  0  0  0  0  0
    2.6351    0.4592    0.0000 C   0  0  0  0  0  0  0  0  0  0  0  0
    3.6958    1.5199    0.0000 C   0  0  0  0  0  0  0  0  0  0  0  0
    2.3968    2.2699    0.0000 C   0  0  0  0  0  0  0  0  0  0  0  0
    1.0977    3.0199    0.0000 C   0  0  0  0  0  0  0  0  0  0  0  0
   -0.2013    3.7699    0.0000 C   0  0  0  0  0  0  0  0  0  0  0  0
   -1.5004    4.5199    0.0000 C   0  0  0  0  0  0  0  0  0  0  0  0
    5.1958    1.5199    0.0000 C   0  0  0  0  0  0  0  0  0  0  0  0
    6.2565    0.4592    0.0000 C   0  0  0  0  0  0  0  0  0  0  0  0
    7.0065    1.7582    0.0000 C   0  0  0  0  0  0  0  0  0  0  0  0
    7.7565    3.0573    0.0000 C   0  0  0  0  0  0  0  0  0  0  0  0
    7.0065    4.3563    0.0000 O   0  0  0  0  0  0  0  0  0  0  0  0
    9.2565    3.0573    0.0000 C   0  0  0  0  0  0  0  0  0  0  0  0
   10.6660    3.5703    0.0000 C   0  0  0  0  0  0  0  0  0  0  0  0
   11.4160    2.2713    0.0000 C   0  0  0  0  0  0  0  0  0  0  0  0
   12.1660    0.9722    0.0000 C   0  0  0  0  0  0  0  0  0  0  0  0
   12.9160   -0.3268    0.0000 C   0  0  0  0  0  0  0  0  0  0  0  0
    9.5169    4.5345    0.0000 C   0  0  0  0  0  0  0  0  0  0  0  0
   10.2669    5.8335    0.0000 C   0  0  0  0  0  0  0  0  0  0  0  0
   -1.0607    0.0000    0.0000 C   0  0  0  0  0  0  0  0  0  0  0  0
   -2.1213   -1.0607    0.0000 C   0  0  0  0  0  0  0  0  0  0  0  0
   -1.3713   -2.3597    0.0000 C   0  0  0  0  0  0  0  0  0  0  0  0
   -2.8713   -2.3597    0.0000 C   0  0  0  0  0  0  0  0  0  0  0  0
   -4.1704   -1.6097    0.0000 C   0  0  0  0  0  0  0  0  0  0  0  0
   -5.4694   -0.8597    0.0000 C   0  0  0  0  0  0  0  0  0  0  0  0
   -6.7684   -0.1097    0.0000 C   0  0  0  0  0  0  0  0  0  0  0  0
   -8.0675    0.6403    0.0000 C   0  0  0  0  0  0  0  0  0  0  0  0
   -3.4204   -0.3107    0.0000 C   0  0  0  0  0  0  0  0  0  0  0  0
   -2.6704    0.9884    0.0000 C   0  0  0  0  0  0  0  0  0  0  0  0
    8.0431   -2.6322    0.0000 H   0  0  0  0  0  0  0  0  0  0  0  0
    8.8323   -0.7017    0.0000 H   0  0  0  0  0  0  0  0  0  0  0  0
    5.1747   -3.3163    0.0000 H   0  0  0  0  0  0  0  0  0  0  0  0
    5.8873   -3.9037    0.0000 H   0  0  0  0  0  0  0  0  0  0  0  0
    7.1102   -2.2143    0.0000 H   0  0  0  0  0  0  0  0  0  0  0  0
    9.0929   -4.3515    0.0000 H   0  0  0  0  0  0  0  0  0  0  0  0
    7.0439   -4.9005    0.0000 H   0  0  0  0  0  0  0  0  0  0  0  0
    8.4014   -2.5492    0.0000 H   0  0  0  0  0  0  0  0  0  0  0  0
    2.4979   -3.0042    0.0000 H   0  0  0  0  0  0  0  0  0  0  0  0
    3.0234   -4.6110    0.0000 H   0  0  0  0  0  0  0  0  0  0  0  0
    4.1328   -0.9567    0.0000 H   0  0  0  0  0  0  0  0  0  0  0  0
    2.5124   -3.0472    0.0000 H   0  0  0  0  0  0  0  0  0  0  0  0
    0.8116   -3.3275    0.0000 H   0  0  0  0  0  0  0  0  0  0  0  0
    0.1828   -2.5495    0.0000 H   0  0  0  0  0  0  0  0  0  0  0  0
    2.4952    0.4384    0.0000 H   0  0  0  0  0  0  0  0  0  0  0  0
    2.3465   -0.7725    0.0000 H   0  0  0  0  0  0  0  0  0  0  0  0
   -1.3808    3.1467    0.0000 H   0  0  0  0  0  0  0  0  0  0  0  0
    2.1911    1.8920    0.0000 H   0  0  0  0  0  0  0  0  0  0  0  0
    3.9045    3.0053    0.0000 H   0  0  0  0  0  0  0  0  0  0  0  0
    3.2995    3.4678    0.0000 H   0  0  0  0  0  0  0  0  0  0  0  0
    2.9828    3.6506    0.0000 H   0  0  0  0  0  0  0  0  0  0  0  0
    1.8477    4.3189    0.0000 H   0  0  0  0  0  0  0  0  0  0  0  0
   -0.1744    2.2251    0.0000 H   0  0  0  0  0  0  0  0  0  0  0  0
    0.5487    5.0689    0.0000 H   0  0  0  0  0  0  0  0  0  0  0  0
   -1.1041    2.5719    0.0000 H   0  0  0  0  0  0  0  0  0  0  0  0
   -2.7994    5.2699    0.0000 H   0  0  0  0  0  0  0  0  0  0  0  0
   -0.7504    5.8189    0.0000 H   0  0  0  0  0  0  0  0  0  0  0  0
   -2.2504    3.2208    0.0000 H   0  0  0  0  0  0  0  0  0  0  0  0
    4.9871    3.0053    0.0000 H   0  0  0  0  0  0  0  0  0  0  0  0
    6.1397    2.6857    0.0000 H   0  0  0  0  0  0  0  0  0  0  0  0
    7.7053    0.0710    0.0000 H   0  0  0  0  0  0  0  0  0  0  0  0
    5.8085    2.6610    0.0000 H   0  0  0  0  0  0  0  0  0  0  0  0
    8.3055    1.0082    0.0000 H   0  0  0  0  0  0  0  0  0  0  0  0
    9.3349    1.5593    0.0000 H   0  0  0  0  0  0  0  0  0  0  0  0
   11.9240    4.3872    0.0000 H   0  0  0  0  0  0  0  0  0  0  0  0
   12.7150    3.0213    0.0000 H   0  0  0  0  0  0  0  0  0  0  0  0
   10.2181    1.3685    0.0000 H   0  0  0  0  0  0  0  0  0  0  0  0
   13.4650    1.7222    0.0000 H   0  0  0  0  0  0  0  0  0  0  0  0
   10.8670    0.2222    0.0000 H   0  0  0  0  0  0  0  0  0  0  0  0
   13.6660   -1.6258    0.0000 H   0  0  0  0  0  0  0  0  0  0  0  0
   11.6170   -1.0768    0.0000 H   0  0  0  0  0  0  0  0  0  0  0  0
   14.2150    0.4232    0.0000 H   0  0  0  0  0  0  0  0  0  0  0  0
    8.1074    5.0475    0.0000 H   0  0  0  0  0  0  0  0  0  0  0  0
   11.0169    7.1326    0.0000 H   0  0  0  0  0  0  0  0  0  0  0  0
    8.9679    6.5835    0.0000 H   0  0  0  0  0  0  0  0  0  0  0  0
   11.6477    5.2475    0.0000 H   0  0  0  0  0  0  0  0  0  0  0  0
   -1.8331    1.2858    0.0000 H   0  0  0  0  0  0  0  0  0  0  0  0
    0.1284   -2.3860    0.0000 H   0  0  0  0  0  0  0  0  0  0  0  0
   -1.1108   -3.8369    0.0000 H   0  0  0  0  0  0  0  0  0  0  0  0
   -3.2595   -3.8086    0.0000 H   0  0  0  0  0  0  0  0  0  0  0  0
   -4.9204   -2.9087    0.0000 H   0  0  0  0  0  0  0  0  0  0  0  0
   -6.2194   -2.1587    0.0000 H   0  0  0  0  0  0  0  0  0  0  0  0
   -4.8833    0.5211    0.0000 H   0  0  0  0  0  0  0  0  0  0  0  0
   -6.0184    1.1893    0.0000 H   0  0  0  0  0  0  0  0  0  0  0  0
   -7.5184   -1.4087    0.0000 H   0  0  0  0  0  0  0  0  0  0  0  0
   -9.3665    1.3903    0.0000 H   0  0  0  0  0  0  0  0  0  0  0  0
   -8.8175   -0.6587    0.0000 H   0  0  0  0  0  0  0  0  0  0  0  0
   -7.3175    1.9393    0.0000 H   0  0  0  0  0  0  0  0  0  0  0  0
   -4.6183    0.5921    0.0000 H   0  0  0  0  0  0  0  0  0  0  0  0
   -1.9204    2.2874    0.0000 H   0  0  0  0  0  0  0  0  0  0  0  0
   -3.9694    1.7384    0.0000 H   0  0  0  0  0  0  0  0  0  0  0  0
   -1.2284    0.5750    0.0000 H   0  0  0  0  0  0  0  0  0  0  0  0
  1  2  2  3
  2  3  1  0
  3  4  1  0
  4  5  1  0
  3  6  1  0
  6  7  1  0
  6  8  1  0
  8  9  1  0
  9 10  1  0
 10 11  1  0
 11 12  1  0
 12 13  1  6
 12 14  1  0
 14 15  2  0
 14 16  1  0
 16 17  1  0
 17 18  1  0
 18 19  1  0
 19 20  1  0
 20 21  1  0
 17 22  1  0
 22 23  1  0
 23 24  1  0
 24 25  1  0
 25 26  2  0
 25 27  1  0
 27 28  1  0
 28 29  1  0
 29 30  1  0
 30 31  1  0
 28 32  1  0
 32 33  1  0
 12 34  1  0
 34 35  1  0
 35 36  1  6
 36 37  1  0
 37 38  1  0
 38 39  1  0
 39 40  1  0
 40 41  1  0
 38 42  1  0
 42 43  1  0
 23  2  1  0
 32 27  1  0
 37 35  1  0
 16  8  1  0
 42 35  1  0
 34 10  1  0
  1 44  1  0
  1 45  1  0
  3 46  1  1
  4 47  1  0
  4 48  1  0
  5 49  1  0
  5 50  1  0
  5 51  1  0
  6 52  1  1
  7 53  1  0
  8 54  1  1
  9 55  1  0
  9 56  1  0
 10 57  1  6
 11 58  1  0
 11 59  1  0
 13 60  1  0
 16 61  1  1
 17 62  1  1
 18 63  1  0
 18 64  1  0
 19 65  1  0
 19 66  1  0
 20 67  1  0
 20 68  1  0
 21 69  1  0
 21 70  1  0
 21 71  1  0
 22 72  1  0
 22 73  1  0
 23 74  1  1
 24 75  1  0
 24 76  1  0
 27 77  1  1
 28 78  1  1
 29 79  1  0
 29 80  1  0
 30 81  1  0
 30 82  1  0
 31 83  1  0
 31 84  1  0
 31 85  1  0
 32 86  1  1
 33 87  1  0
 33 88  1  0
 33 89  1  0
 34 90  1  1
 36 91  1  0
 36 92  1  0
 37 93  1  6
 38 94  1  6
 39 95  1  0
 39 96  1  0
 40 97  1  0
 40 98  1  0
 41 99  1  0
 41100  1  0
 41101  1  0
 42102  1  6
 43103  1  0
 43104  1  0
 43105  1  0
M  END
$$$$
