
     RDKit          2D

 36 38  0  0  0  0  0  0  0  0999 V2000
   -6.4911    9.7135    0.0000 C   0  0  0  0  0  0  0  0  0  0  0  0
   -5.5269    8.5644    0.0000 C   0  0  0  0  0  0  0  0  0  0  0  0
   -6.0399    7.1549    0.0000 C   0  0  0  0  0  0  0  0  0  0  0  0
   -5.0757    6.0058    0.0000 C   0  0  0  0  0  0  0  0  0  0  0  0
   -5.5888    4.5963    0.0000 C   0  0  0  0  0  0  0  0  0  0  0  0
   -4.6246    3.4472    0.0000 C   0  0  0  0  0  0  0  0  0  0  0  0
   -3.4755    4.4114    0.0000 Cl  0  0  0  0  0  0  0  0  0  0  0  0
   -3.6604    2.2981    0.0000 C   0  0  0  0  0  0  0  0  0  0  0  0
   -2.6962    1.1491    0.0000 C   0  0  0  0  0  0  0  0  0  0  0  0
   -1.7321    0.0000    0.0000 C   0  0  0  0  0  0  0  0  0  0  0  0
   -0.4330    0.7500    0.0000 C   0  0  0  0  0  0  0  0  0  0  0  0
    0.8660    0.0000    0.0000 C   0  0  0  0  0  0  0  0  0  0  0  0
   -0.4330   -0.7500    0.0000 C   0  0  0  0  0  0  0  0  0  0  0  0
   -4.8095    1.3340    0.0000 C   0  0  0  0  0  0  0  0  0  0  0  0
   -6.2190    0.8209    0.0000 O   0  0  0  0  0  0  0  0  0  0  0  0
   -5.9585    2.2981    0.0000 C   0  0  0  0  0  0  0  0  0  0  0  0
   -7.3681    2.8112    0.0000 O   0  0  0  0  0  0  0  0  0  0  0  0
   -7.4553   10.8625    0.0000 H   0  0  0  0  0  0  0  0  0  0  0  0
   -5.3420   10.6777    0.0000 H   0  0  0  0  0  0  0  0  0  0  0  0
   -7.6401    8.7493    0.0000 H   0  0  0  0  0  0  0  0  0  0  0  0
   -4.0497    8.8249    0.0000 H   0  0  0  0  0  0  0  0  0  0  0  0
   -7.5171    6.8944    0.0000 H   0  0  0  0  0  0  0  0  0  0  0  0
   -3.5985    6.2663    0.0000 H   0  0  0  0  0  0  0  0  0  0  0  0
   -7.0660    4.3358    0.0000 H   0  0  0  0  0  0  0  0  0  0  0  0
   -5.3411    3.0978    0.0000 H   0  0  0  0  0  0  0  0  0  0  0  0
   -2.5113    3.2623    0.0000 H   0  0  0  0  0  0  0  0  0  0  0  0
   -1.5472    2.1132    0.0000 H   0  0  0  0  0  0  0  0  0  0  0  0
   -3.4420    0.3493    0.0000 H   0  0  0  0  0  0  0  0  0  0  0  0
   -2.6962   -1.1491    0.0000 H   0  0  0  0  0  0  0  0  0  0  0  0
   -0.4330    2.2500    0.0000 H   0  0  0  0  0  0  0  0  0  0  0  0
    1.8302    1.1491    0.0000 H   0  0  0  0  0  0  0  0  0  0  0  0
    1.8302   -1.1491    0.0000 H   0  0  0  0  0  0  0  0  0  0  0  0
   -0.4330   -2.2500    0.0000 H   0  0  0  0  0  0  0  0  0  0  0  0
   -4.3822    0.3274    0.0000 H   0  0  0  0  0  0  0  0  0  0  0  0
   -5.6237    3.4661    0.0000 H   0  0  0  0  0  0  0  0  0  0  0  0
   -8.5172    1.8470    0.0000 H   0  0  0  0  0  0  0  0  0  0  0  0
  1  2  1  0
  2  3  2  3
  3  4  1  0
  4  5  2  3
  5  6  1  0
  6  7  1  0
  6  8  1  0
  8  9  1  0
  9 10  1  0
 10 11  1  0
 11 12  1  0
 12 13  1  0
  8 14  1  0
 14 15  1  0
 15 16  1  0
 16 17  1  0
 13 10  1  0
 16 14  1  0
 13 11  1  0
  1 18  1  0
  1 19  1  0
  1 20  1  0
  2 21  1  0
  3 22  1  0
  4 23  1  0
  5 24  1  0
  6 25  1  6
  8 26  1  1
  9 27  1  0
  9 28  1  0
 10 29  1  1
 11 30  1  6
 12 31  1  0
 12 32  1  0
 13 33  1  6
 14 34  1  1
 16 35  1  1
 17 36  1  0
M  END
$$$$
