
     RDKit          2D

 43 46  0  0  0  0  0  0  0  0999 V2000
   -5.5269  -10.0644    0.0000 N   0  0  0  0  0  0  0  0  0  0  0  0
   -6.0399   -8.6549    0.0000 N   0  0  0  0  0  0  0  0  0  0  0  0
   -5.0757   -7.5058    0.0000 C   0  0  0  0  0  0  0  0  0  0  0  0
   -5.5888   -6.0963    0.0000 N   0  0  0  0  0  0  0  0  0  0  0  0
   -4.6246   -4.9472    0.0000 C   0  0  0  0  0  0  0  0  0  0  0  0
   -3.6604   -3.7981    0.0000 C   0  0  0  0  0  0  0  0  0  0  0  0
   -2.6962   -2.6491    0.0000 C   0  0  0  0  0  0  0  0  0  0  0  0
   -1.7321   -1.5000    0.0000 C   0  0  0  0  0  0  0  0  0  0  0  0
   -3.0311   -0.7500    0.0000 C   0  0  0  0  0  0  0  0  0  0  0  0
   -3.0311    0.7500    0.0000 C   0  0  0  0  0  0  0  0  0  0  0  0
   -1.7321    1.5000    0.0000 C   0  0  0  0  0  0  0  0  0  0  0  0
   -0.4330    0.7500    0.0000 C   0  0  0  0  0  0  0  0  0  0  0  0
    0.8660    0.0000    0.0000 C   0  0  0  0  0  0  0  0  0  0  0  0
   -0.4330   -0.7500    0.0000 C   0  0  0  0  0  0  0  0  0  0  0  0
   -4.8095   -2.8340    0.0000 C   0  0  0  0  0  0  0  0  0  0  0  0
   -5.9585   -3.7981    0.0000 C   0  0  0  0  0  0  0  0  0  0  0  0
   -7.3681   -3.2851    0.0000 C   0  0  0  0  0  0  0  0  0  0  0  0
   -8.1181   -4.5841    0.0000 Br  0  0  0  0  0  0  0  0  0  0  0  0
   -6.2190   -2.3209    0.0000 C   0  0  0  0  0  0  0  0  0  0  0  0
   -6.4911  -11.2135    0.0000 H   0  0  0  0  0  0  0  0  0  0  0  0
   -4.0497  -10.3249    0.0000 H   0  0  0  0  0  0  0  0  0  0  0  0
   -7.5171   -8.3944    0.0000 H   0  0  0  0  0  0  0  0  0  0  0  0
   -3.5985   -7.7663    0.0000 H   0  0  0  0  0  0  0  0  0  0  0  0
   -5.5092   -4.5158    0.0000 H   0  0  0  0  0  0  0  0  0  0  0  0
   -3.4755   -5.9114    0.0000 H   0  0  0  0  0  0  0  0  0  0  0  0
   -2.5113   -4.7623    0.0000 H   0  0  0  0  0  0  0  0  0  0  0  0
   -3.3069   -2.1367    0.0000 H   0  0  0  0  0  0  0  0  0  0  0  0
   -1.5472   -3.6132    0.0000 H   0  0  0  0  0  0  0  0  0  0  0  0
   -0.7679   -2.6491    0.0000 H   0  0  0  0  0  0  0  0  0  0  0  0
   -4.5083   -0.4895    0.0000 H   0  0  0  0  0  0  0  0  0  0  0  0
   -3.4769   -1.4109    0.0000 H   0  0  0  0  0  0  0  0  0  0  0  0
   -3.5441    2.1595    0.0000 H   0  0  0  0  0  0  0  0  0  0  0  0
   -4.5083    0.4895    0.0000 H   0  0  0  0  0  0  0  0  0  0  0  0
   -0.7679    2.6491    0.0000 H   0  0  0  0  0  0  0  0  0  0  0  0
   -2.6962    2.6491    0.0000 H   0  0  0  0  0  0  0  0  0  0  0  0
    0.3170    2.0490    0.0000 H   0  0  0  0  0  0  0  0  0  0  0  0
    1.8302    1.1491    0.0000 H   0  0  0  0  0  0  0  0  0  0  0  0
    1.8302   -1.1491    0.0000 H   0  0  0  0  0  0  0  0  0  0  0  0
    0.3170   -2.0490    0.0000 H   0  0  0  0  0  0  0  0  0  0  0  0
   -4.3961   -1.3920    0.0000 H   0  0  0  0  0  0  0  0  0  0  0  0
   -6.0633   -5.2945    0.0000 H   0  0  0  0  0  0  0  0  0  0  0  0
   -8.5172   -2.3209    0.0000 H   0  0  0  0  0  0  0  0  0  0  0  0
   -6.4795   -0.8437    0.0000 H   0  0  0  0  0  0  0  0  0  0  0  0
  1  2  1  0
  2  3  1  0
  3  4  2  3
  4  5  1  0
  5  6  1  0
  6  7  1  0
  7  8  1  0
  8  9  1  0
  9 10  1  0
 10 11  1  0
 11 12  1  0
 12 13  1  0
 13 14  1  0
  6 15  1  0
 15 16  1  0
 16 17  1  0
 17 18  1  0
 17 19  1  0
 14  8  1  0
 19 15  1  0
 14 12  1  0
 19 16  1  0
  1 20  1  0
  1 21  1  0
  2 22  1  0
  3 23  1  0
  5 24  1  0
  5 25  1  0
  6 26  1  6
  7 27  1  0
  7 28  1  0
  8 29  1  1
  9 30  1  0
  9 31  1  0
 10 32  1  0
 10 33  1  0
 11 34  1  0
 11 35  1  0
 12 36  1  1
 13 37  1  0
 13 38  1  0
 14 39  1  6
 15 40  1  1
 16 41  1  1
 17 42  1  6
 19 43  1  1
M  END
$$$$
