
     RDKit          3D

 23 23  0  0  0  0  0  0  0  0999 V2000
   22.0110  -31.1804  -12.5715 O   0  0  0  0  0  0  0  0  0  0  0  0
   23.1118  -31.1013  -11.2239 P   0  0  0  0  0  0  0  0  0  0  0  0
   22.4750  -31.4568   -8.9069 O   0  0  0  0  0  0  0  0  0  0  0  0
   19.7447  -27.4620   -8.0446 O   0  0  0  0  0  0  0  0  0  0  0  0
   20.8773  -29.7024   -8.8574 N   0  0  0  0  0  0  0  0  0  0  0  0
   22.0305  -31.8601  -10.0846 O   0  0  0  0  0  0  0  0  0  0  0  0
   21.8726  -30.6023   -6.7577 C   0  0  0  0  0  0  0  0  0  0  0  0
   20.9099  -31.1107   -5.6617 C   0  0  0  0  0  0  0  0  0  0  0  0
   21.3748  -30.9265   -8.1948 C   0  0  0  0  0  0  0  0  0  0  0  0
   21.8936  -25.1402   -7.0309 O   0  0  0  0  0  1  0  0  0  0  0  0
   20.2400  -27.1544   -6.4287 Si  0  0  0  0  0  3  0  0  0  0  0  0
   19.3394  -29.1528   -8.0714 P   0  0  0  0  0  0  0  0  0  0  0  0
   21.3152  -32.4407   -5.0236 C   0  0  0  0  0  0  0  0  0  0  0  0
   21.1652  -25.0621   -4.7539 C   0  0  0  0  0  0  0  0  0  0  0  0
   19.1388  -24.3057   -1.5090 C   0  0  0  0  0  0  0  0  0  0  0  0
   19.5266  -24.3578   -0.1565 O   0  0  0  0  0  0  0  0  0  0  0  0
   19.9351  -24.8365   -3.8604 C   0  0  0  0  0  0  0  0  0  0  0  0
   20.1643  -33.4422   -4.9104 C   0  0  0  0  0  0  0  0  0  0  0  0
   21.2097  -30.5277   -4.2841 C   0  0  0  0  0  0  0  0  0  0  0  0
   20.3556  -24.4875   -2.4317 C   0  0  0  0  0  0  0  0  0  0  0  0
   19.5274  -25.6360    0.1842 O   0  0  0  0  0  0  0  0  0  0  0  0
   21.6012  -31.8250   -3.7244 N   0  0  0  0  0  0  0  0  0  0  0  0
   20.7824  -25.3618   -6.2141 C   0  0  0  0  0  0  0  0  0  0  0  0
  2  1  1  0
  6  2  1  0
  6  3  1  0
  8  7  1  0
  9  3  1  0
  9  5  1  0
  9  7  1  0
 11  4  1  0
 12  4  1  0
 12  5  1  0
 13  8  1  0
 16 15  1  0
 17 14  1  0
 18 13  1  0
 19  8  1  0
 20 15  1  0
 20 17  1  0
 21 16  1  0
 22 13  1  0
 22 19  1  0
 23 10  1  0
 23 11  1  0
 23 14  1  0
M  RAD  2  10   2  11   2
M  END
$$$$
