
     RDKit          2D

105110  0  0  0  0  0  0  0  0999 V2000
  -11.0768    6.2186    0.0000 C   0  0  0  0  0  0  0  0  0  0  0  0
  -10.4429    4.8592    0.0000 C   0  0  0  0  0  0  0  0  0  0  0  0
  -11.6865    4.0205    0.0000 O   0  0  0  0  0  0  0  0  0  0  0  0
   -8.9486    4.7285    0.0000 C   0  0  0  0  0  0  0  0  0  0  0  0
   -7.4543    4.5977    0.0000 C   0  0  0  0  0  0  0  0  0  0  0  0
   -5.9600    4.4670    0.0000 C   0  0  0  0  0  0  0  0  0  0  0  0
   -4.4657    4.3362    0.0000 N   0  0  0  0  0  0  0  0  0  0  0  0
   -9.0793    3.2342    0.0000 C   0  0  0  0  0  0  0  0  0  0  0  0
   -9.2101    1.7399    0.0000 N   0  0  0  0  0  0  0  0  0  0  0  0
  -10.5695    1.1059    0.0000 S   0  0  0  0  0  4  0  0  0  0  0  0
  -11.9290    0.4720    0.0000 Cl  0  0  0  0  0  0  0  0  0  0  0  0
  -11.2035    2.4654    0.0000 C   0  0  0  0  0  0  0  0  0  0  0  0
   -9.8440    3.0993    0.0000 O   0  0  0  0  0  0  0  0  0  0  0  0
  -10.4779    4.4588    0.0000 C   0  0  0  0  0  0  0  0  0  0  0  0
  -11.8374    3.8249    0.0000 C   0  0  0  0  0  0  0  0  0  0  0  0
  -13.1968    3.1909    0.0000 C   0  0  0  0  0  0  0  0  0  0  0  0
  -14.5563    2.5570    0.0000 C   0  0  0  0  0  0  0  0  0  0  0  0
  -15.9158    1.9231    0.0000 C   0  0  0  0  0  0  0  0  0  0  0  0
  -17.2752    1.2892    0.0000 C   0  0  0  0  0  0  0  0  0  0  0  0
  -16.8870   -0.1597    0.0000 C   0  0  0  0  0  0  0  0  0  0  0  0
  -16.4988   -1.6086    0.0000 C   0  0  0  0  0  0  0  0  0  0  0  0
  -16.1105   -3.0575    0.0000 C   0  0  0  0  0  0  0  0  0  0  0  0
  -15.7223   -4.5064    0.0000 C   0  0  0  0  0  0  0  0  0  0  0  0
  -15.8531   -6.0007    0.0000 C   0  0  0  0  0  0  0  0  0  0  0  0
  -17.0818   -5.1403    0.0000 C   0  0  0  0  0  0  0  0  0  0  0  0
  -18.7695    1.1584    0.0000 C   0  0  0  0  0  0  0  0  0  0  0  0
  -18.1356    2.5179    0.0000 C   0  0  0  0  0  0  0  0  0  0  0  0
  -19.3643    3.3782    0.0000 C   0  0  0  0  0  0  0  0  0  0  0  0
   -9.9356   -0.2535    0.0000 C   0  0  0  0  0  0  0  0  0  0  0  0
   -8.8749   -1.3142    0.0000 O   0  0  0  0  0  0  0  0  0  0  0  0
   -8.4867    0.1347    0.0000 C   0  0  0  0  0  0  0  0  0  0  0  0
   -6.9924    0.0040    0.0000 C   0  0  0  0  0  0  0  0  0  0  0  0
   -5.4981   -0.1268    0.0000 C   0  0  0  0  0  0  0  0  0  0  0  0
   -5.3674    1.3675    0.0000 O   0  0  0  0  0  0  0  0  0  0  0  0
   -4.0038   -0.2575    0.0000 C   0  0  0  0  0  0  0  0  0  0  0  0
   -2.5095   -0.3882    0.0000 C   0  0  0  0  0  0  0  0  0  0  0  0
   -2.8978   -1.8371    0.0000 O   0  0  0  0  0  0  0  0  0  0  0  0
   -1.8371   -2.8978    0.0000 C   0  0  0  0  0  0  0  0  0  0  0  0
   -0.3882   -2.5095    0.0000 C   0  0  0  0  0  0  0  0  0  0  0  0
   -0.0000   -1.0607    0.0000 C   0  0  0  0  0  0  0  0  0  0  0  0
    1.0607    0.0000    0.0000 C   0  0  0  0  0  0  0  0  0  0  0  0
    0.0000    1.0607    0.0000 C   0  0  0  0  0  0  0  0  0  0  0  0
   -1.0607    0.0000    0.0000 C   0  0  0  0  0  0  0  0  0  0  0  0
   -1.8107    1.2990    0.0000 C   0  0  0  0  0  0  0  0  0  0  0  0
  -11.7108    7.5781    0.0000 H   0  0  0  0  0  0  0  0  0  0  0  0
  -12.5034    5.7552    0.0000 H   0  0  0  0  0  0  0  0  0  0  0  0
   -9.7174    6.8526    0.0000 H   0  0  0  0  0  0  0  0  0  0  0  0
   -8.8179    6.2227    0.0000 H   0  0  0  0  0  0  0  0  0  0  0  0
   -7.3236    6.0920    0.0000 H   0  0  0  0  0  0  0  0  0  0  0  0
   -7.4019    3.0986    0.0000 H   0  0  0  0  0  0  0  0  0  0  0  0
   -6.2719    2.9998    0.0000 H   0  0  0  0  0  0  0  0  0  0  0  0
   -5.8293    5.9613    0.0000 H   0  0  0  0  0  0  0  0  0  0  0  0
   -3.6054    5.5650    0.0000 H   0  0  0  0  0  0  0  0  0  0  0  0
   -3.8318    2.9768    0.0000 H   0  0  0  0  0  0  0  0  0  0  0  0
  -10.5466    3.5461    0.0000 H   0  0  0  0  0  0  0  0  0  0  0  0
   -7.6121    2.9223    0.0000 H   0  0  0  0  0  0  0  0  0  0  0  0
   -7.9813    0.8795    0.0000 H   0  0  0  0  0  0  0  0  0  0  0  0
  -12.4755    1.6705    0.0000 H   0  0  0  0  0  0  0  0  0  0  0  0
  -11.4220    5.6245    0.0000 H   0  0  0  0  0  0  0  0  0  0  0  0
   -9.3123    5.4028    0.0000 H   0  0  0  0  0  0  0  0  0  0  0  0
  -12.6323    5.0969    0.0000 H   0  0  0  0  0  0  0  0  0  0  0  0
  -13.8308    4.5504    0.0000 H   0  0  0  0  0  0  0  0  0  0  0  0
  -12.7334    1.7643    0.0000 H   0  0  0  0  0  0  0  0  0  0  0  0
  -15.1902    3.9165    0.0000 H   0  0  0  0  0  0  0  0  0  0  0  0
  -13.9224    1.1975    0.0000 H   0  0  0  0  0  0  0  0  0  0  0  0
  -16.3793    3.3497    0.0000 H   0  0  0  0  0  0  0  0  0  0  0  0
  -15.1209    0.6510    0.0000 H   0  0  0  0  0  0  0  0  0  0  0  0
  -18.2778   -0.7217    0.0000 H   0  0  0  0  0  0  0  0  0  0  0  0
  -15.4016    0.0490    0.0000 H   0  0  0  0  0  0  0  0  0  0  0  0
  -17.9477   -1.9969    0.0000 H   0  0  0  0  0  0  0  0  0  0  0  0
  -15.0499   -1.2204    0.0000 H   0  0  0  0  0  0  0  0  0  0  0  0
  -17.5960   -3.2662    0.0000 H   0  0  0  0  0  0  0  0  0  0  0  0
  -14.6617   -2.6693    0.0000 H   0  0  0  0  0  0  0  0  0  0  0  0
  -14.2280   -4.3757    0.0000 H   0  0  0  0  0  0  0  0  0  0  0  0
  -14.4042   -6.3889    0.0000 H   0  0  0  0  0  0  0  0  0  0  0  0
  -16.4870   -7.3602    0.0000 H   0  0  0  0  0  0  0  0  0  0  0  0
  -18.1424   -6.2010    0.0000 H   0  0  0  0  0  0  0  0  0  0  0  0
  -18.0855   -4.0256    0.0000 H   0  0  0  0  0  0  0  0  0  0  0  0
  -19.0814   -0.3088    0.0000 H   0  0  0  0  0  0  0  0  0  0  0  0
  -20.2549    1.3671    0.0000 H   0  0  0  0  0  0  0  0  0  0  0  0
  -17.2121    3.6999    0.0000 H   0  0  0  0  0  0  0  0  0  0  0  0
  -20.5931    4.2386    0.0000 H   0  0  0  0  0  0  0  0  0  0  0  0
  -18.5040    4.6070    0.0000 H   0  0  0  0  0  0  0  0  0  0  0  0
  -20.3681    2.2636    0.0000 H   0  0  0  0  0  0  0  0  0  0  0  0
  -11.1643   -1.1139    0.0000 H   0  0  0  0  0  0  0  0  0  0  0  0
   -8.2520    1.6162    0.0000 H   0  0  0  0  0  0  0  0  0  0  0  0
   -7.1232   -1.4903    0.0000 H   0  0  0  0  0  0  0  0  0  0  0  0
   -7.0448    1.5031    0.0000 H   0  0  0  0  0  0  0  0  0  0  0  0
   -5.6289   -1.6211    0.0000 H   0  0  0  0  0  0  0  0  0  0  0  0
   -6.5961    2.2279    0.0000 H   0  0  0  0  0  0  0  0  0  0  0  0
   -4.1346   -1.7518    0.0000 H   0  0  0  0  0  0  0  0  0  0  0  0
   -3.8731    1.2368    0.0000 H   0  0  0  0  0  0  0  0  0  0  0  0
   -2.8215    1.0790    0.0000 H   0  0  0  0  0  0  0  0  0  0  0  0
   -1.2032   -4.2572    0.0000 H   0  0  0  0  0  0  0  0  0  0  0  0
   -3.0658   -3.7581    0.0000 H   0  0  0  0  0  0  0  0  0  0  0  0
    1.0790   -2.8215    0.0000 H   0  0  0  0  0  0  0  0  0  0  0  0
   -0.2575   -4.0038    0.0000 H   0  0  0  0  0  0  0  0  0  0  0  0
    1.3808   -1.6467    0.0000 H   0  0  0  0  0  0  0  0  0  0  0  0
    2.1213    1.0607    0.0000 H   0  0  0  0  0  0  0  0  0  0  0  0
    2.1213   -1.0607    0.0000 H   0  0  0  0  0  0  0  0  0  0  0  0
   -0.9235    2.2427    0.0000 H   0  0  0  0  0  0  0  0  0  0  0  0
    1.0607    2.1213    0.0000 H   0  0  0  0  0  0  0  0  0  0  0  0
   -2.5607    2.5981    0.0000 H   0  0  0  0  0  0  0  0  0  0  0  0
   -0.6127    2.2018    0.0000 H   0  0  0  0  0  0  0  0  0  0  0  0
   -3.1914    0.7130    0.0000 H   0  0  0  0  0  0  0  0  0  0  0  0
  1  2  1  0
  2  3  2  0
  2  4  1  0
  4  5  1  0
  5  6  1  0
  6  7  1  0
  4  8  1  0
  8  9  1  0
  9 10  1  0
 10 11  1  0
 10 12  1  0
 12 13  1  0
 13 14  1  0
 14 15  1  0
 15 16  1  0
 16 17  1  0
 17 18  1  0
 18 19  1  0
 19 20  1  0
 20 21  1  0
 21 22  1  0
 22 23  1  0
 23 24  1  0
 24 25  1  0
 19 26  1  0
 26 27  1  0
 27 28  1  0
 10 29  1  0
 29 30  1  0
 30 31  1  0
 31 32  1  0
 32 33  1  0
 33 34  1  0
 33 35  1  0
 35 36  1  0
 36 37  1  0
 37 38  1  0
 38 39  1  0
 39 40  1  0
 40 41  1  0
 41 42  1  0
 42 43  1  0
 43 44  1  0
 15 12  1  0
 27 19  1  0
 31 29  1  0
 43 36  1  0
 25 23  1  0
 43 40  1  0
  1 45  1  0
  1 46  1  0
  1 47  1  0
  4 48  1  0
  5 49  1  0
  5 50  1  0
  6 51  1  0
  6 52  1  0
  7 53  1  0
  7 54  1  0
  8 55  1  0
  8 56  1  0
  9 57  1  0
 12 58  1  0
 14 59  1  0
 14 60  1  0
 15 61  1  0
 16 62  1  0
 16 63  1  0
 17 64  1  0
 17 65  1  0
 18 66  1  0
 18 67  1  0
 20 68  1  0
 20 69  1  0
 21 70  1  0
 21 71  1  0
 22 72  1  0
 22 73  1  0
 23 74  1  0
 24 75  1  0
 24 76  1  0
 25 77  1  0
 25 78  1  0
 26 79  1  0
 26 80  1  0
 27 81  1  0
 28 82  1  0
 28 83  1  0
 28 84  1  0
 29 85  1  0
 31 86  1  0
 32 87  1  0
 32 88  1  0
 33 89  1  0
 34 90  1  0
 35 91  1  0
 35 92  1  0
 36 93  1  0
 38 94  1  0
 38 95  1  0
 39 96  1  0
 39 97  1  0
 40 98  1  0
 41 99  1  0
 41100  1  0
 42101  1  0
 42102  1  0
 44103  1  0
 44104  1  0
 44105  1  0
M  END
$$$$
