
     RDKit          3D

 15 17  0  0  0  0  0  0  0  0999 V2000
   14.2547  -17.2237   -4.3076 O   0  0  0  0  0  0  0  0  0  0  0  0
   13.2342  -16.9116   -5.2261 C   0  0  0  0  0  0  0  0  0  0  0  0
   13.7842  -16.5479   -6.4638 O   0  0  0  0  0  0  0  0  0  0  0  0
   12.7649  -15.7115   -4.4261 C   0  0  0  0  0  0  0  0  0  0  0  0
   13.4009  -16.5866   -2.1868 N   0  0  0  0  0  0  0  0  0  0  0  0
   14.2858  -15.7971   -0.1630 C   0  0  0  0  0  0  0  0  0  0  0  0
   14.9880  -15.1355   -3.2246 C   0  0  0  0  0  0  0  0  0  0  0  0
   14.7388  -16.4534    0.9894 O   0  0  0  0  0  0  0  0  0  0  0  0
   15.2584  -14.7045   -0.5996 C   0  0  0  0  0  0  0  0  0  0  0  0
   14.5861  -13.3242   -0.7269 C   0  0  0  0  0  0  0  0  0  0  0  0
   15.5627  -12.2609   -1.2281 C   0  0  0  0  0  0  0  0  0  0  0  0
   14.5395  -16.6200   -1.3534 N   0  0  0  0  0  0  0  0  0  0  0  0
   16.1146  -15.1508   -4.2691 C   0  0  0  0  0  0  0  0  0  0  0  0
   13.8751  -16.1364   -3.4914 C   0  0  0  0  0  0  0  0  0  0  0  0
   15.4757  -15.5938   -1.8393 C   0  0  0  0  0  0  0  0  0  0  0  0
  2  1  1  0
  3  2  1  0
  4  2  1  0
  8  6  1  0
  9  6  1  0
 10  9  1  0
 11 10  1  0
 12  5  1  0
 12  6  1  0
 13  7  1  0
 14  1  1  0
 14  4  1  0
 14  5  1  0
 14  7  1  0
 15  7  1  0
 15  9  1  0
 15 12  1  0
M  END
$$$$
