
     RDKit          2D

 38 40  0  0  0  0  0  0  0  0999 V2000
    5.3122   -5.7990    0.0000 C   0  0  0  0  0  0  0  0  0  0  0  0
    4.0131   -6.5490    0.0000 C   0  0  0  0  0  0  0  0  0  0  0  0
    2.7141   -5.7990    0.0000 C   0  0  0  0  0  0  0  0  0  0  0  0
    1.4151   -5.0490    0.0000 C   0  0  0  0  0  0  0  0  0  0  0  0
    0.1160   -4.2990    0.0000 C   0  0  0  0  0  0  0  0  0  0  0  0
   -1.1830   -3.5490    0.0000 C   0  0  0  0  0  0  0  0  0  0  0  0
   -2.4821   -2.7990    0.0000 C   0  0  0  0  0  0  0  0  0  0  0  0
   -3.7811   -2.0490    0.0000 N   0  0  0  0  0  0  0  0  0  0  0  0
   -3.0311   -0.7500    0.0000 C   0  0  0  0  0  0  0  0  0  0  0  0
   -3.0311    0.7500    0.0000 C   0  0  0  0  0  0  0  0  0  0  0  0
   -1.7321    1.5000    0.0000 C   0  0  0  0  0  0  0  0  0  0  0  0
   -0.4330    0.7500    0.0000 C   0  0  0  0  0  0  0  0  0  0  0  0
    0.8660    0.0000    0.0000 C   0  0  0  0  0  0  0  0  0  0  0  0
   -0.4330   -0.7500    0.0000 C   0  0  0  0  0  0  0  0  0  0  0  0
   -1.7321   -1.5000    0.0000 C   0  0  0  0  0  0  0  0  0  0  0  0
    6.6112   -6.5490    0.0000 H   0  0  0  0  0  0  0  0  0  0  0  0
    5.3122   -4.2990    0.0000 H   0  0  0  0  0  0  0  0  0  0  0  0
    4.0131   -8.0490    0.0000 H   0  0  0  0  0  0  0  0  0  0  0  0
    3.4641   -4.5000    0.0000 H   0  0  0  0  0  0  0  0  0  0  0  0
    1.9641   -7.0981    0.0000 H   0  0  0  0  0  0  0  0  0  0  0  0
    0.6651   -6.3481    0.0000 H   0  0  0  0  0  0  0  0  0  0  0  0
    2.1651   -3.7500    0.0000 H   0  0  0  0  0  0  0  0  0  0  0  0
    0.8660   -3.0000    0.0000 H   0  0  0  0  0  0  0  0  0  0  0  0
   -0.6340   -5.5981    0.0000 H   0  0  0  0  0  0  0  0  0  0  0  0
   -0.6292   -2.9756    0.0000 H   0  0  0  0  0  0  0  0  0  0  0  0
   -1.9330   -4.8481    0.0000 H   0  0  0  0  0  0  0  0  0  0  0  0
   -3.2321   -4.0981    0.0000 H   0  0  0  0  0  0  0  0  0  0  0  0
   -5.2300   -2.4373    0.0000 H   0  0  0  0  0  0  0  0  0  0  0  0
   -4.5165   -0.5413    0.0000 H   0  0  0  0  0  0  0  0  0  0  0  0
   -3.5441    2.1595    0.0000 H   0  0  0  0  0  0  0  0  0  0  0  0
   -4.5290    0.6715    0.0000 H   0  0  0  0  0  0  0  0  0  0  0  0
   -0.7679    2.6491    0.0000 H   0  0  0  0  0  0  0  0  0  0  0  0
   -2.6962    2.6491    0.0000 H   0  0  0  0  0  0  0  0  0  0  0  0
    0.3170    2.0490    0.0000 H   0  0  0  0  0  0  0  0  0  0  0  0
    1.8302    1.1491    0.0000 H   0  0  0  0  0  0  0  0  0  0  0  0
    1.8302   -1.1491    0.0000 H   0  0  0  0  0  0  0  0  0  0  0  0
    0.3795   -1.8281    0.0000 H   0  0  0  0  0  0  0  0  0  0  0  0
   -1.0341   -2.0453    0.0000 H   0  0  0  0  0  0  0  0  0  0  0  0
  1  2  2  3
  2  3  1  0
  3  4  1  0
  4  5  1  0
  5  6  1  0
  6  7  1  0
  7  8  1  0
  8  9  1  0
  9 10  1  0
 10 11  1  0
 11 12  1  0
 12 13  1  0
 13 14  1  0
 14 15  1  0
 15  7  1  0
 15  9  1  0
 14 12  1  0
  1 16  1  0
  1 17  1  0
  2 18  1  0
  3 19  1  0
  3 20  1  0
  4 21  1  0
  4 22  1  0
  5 23  1  0
  5 24  1  0
  6 25  1  0
  6 26  1  0
  7 27  1  0
  8 28  1  0
  9 29  1  0
 10 30  1  0
 10 31  1  0
 11 32  1  0
 11 33  1  0
 12 34  1  0
 13 35  1  0
 13 36  1  0
 14 37  1  0
 15 38  1  0
M  END
$$$$
