
     RDKit          2D

 93 98  0  0  0  0  0  0  0  0999 V2000
   -5.0213    2.4200    0.0000 C   0  0  0  0  0  0  0  0  0  0  0  0
   -3.5441    2.1595    0.0000 C   0  0  0  0  0  0  0  0  0  0  0  0
   -2.5799    3.3086    0.0000 C   0  0  0  0  0  0  0  0  0  0  0  0
   -3.7290    4.2728    0.0000 C   0  0  0  0  0  0  0  0  0  0  0  0
   -4.8781    5.2370    0.0000 C   0  0  0  0  0  0  0  0  0  0  0  0
   -1.6158    4.4577    0.0000 C   0  0  0  0  0  0  0  0  0  0  0  0
   -0.6516    5.6067    0.0000 N   0  0  0  0  0  0  0  0  0  0  0  0
   -1.1646    7.0163    0.0000 C   0  0  0  0  0  0  0  0  0  0  0  0
   -1.6776    8.4258    0.0000 C   0  0  0  0  0  0  0  0  0  0  0  0
   -3.1548    8.6863    0.0000 O   0  0  0  0  0  0  0  0  0  0  0  0
    0.2449    7.5293    0.0000 C   0  0  0  0  0  0  0  0  0  0  0  0
    1.6545    8.0423    0.0000 C   0  0  0  0  0  0  0  0  0  0  0  0
    3.0640    8.5554    0.0000 C   0  0  0  0  0  0  0  0  0  0  0  0
   -3.0311    0.7500    0.0000 C   0  0  0  0  0  0  0  0  0  0  0  0
   -1.7321    1.5000    0.0000 C   0  0  0  0  0  0  0  0  0  0  0  0
   -2.6962    2.6491    0.0000 C   0  0  0  0  0  0  0  0  0  0  0  0
   -0.7679    2.6491    0.0000 C   0  0  0  0  0  0  0  0  0  0  0  0
   -0.4330    0.7500    0.0000 C   0  0  0  0  0  0  0  0  0  0  0  0
    0.8660    0.0000    0.0000 C   0  0  0  0  0  0  0  0  0  0  0  0
   -0.4330   -0.7500    0.0000 C   0  0  0  0  0  0  0  0  0  0  0  0
   -1.7321    0.0000    0.0000 C   0  0  0  0  0  0  0  0  0  0  0  0
   -1.7321   -1.5000    0.0000 C   0  0  0  0  0  0  0  0  0  0  0  0
   -0.9821   -2.7990    0.0000 C   0  0  0  0  0  0  0  0  0  0  0  0
   -1.7321   -4.0981    0.0000 C   0  0  0  0  0  0  0  0  0  0  0  0
   -3.2321   -4.0981    0.0000 C   0  0  0  0  0  0  0  0  0  0  0  0
   -3.6203   -5.5470    0.0000 C   0  0  0  0  0  0  0  0  0  0  0  0
   -5.0692   -5.1587    0.0000 C   0  0  0  0  0  0  0  0  0  0  0  0
   -4.6809   -3.7098    0.0000 C   0  0  0  0  0  0  0  0  0  0  0  0
   -3.6203   -2.6492    0.0000 C   0  0  0  0  0  0  0  0  0  0  0  0
   -2.2608   -2.0153    0.0000 C   0  0  0  0  0  0  0  0  0  0  0  0
   -0.9014   -1.3813    0.0000 C   0  0  0  0  0  0  0  0  0  0  0  0
    0.4581   -0.7474    0.0000 C   0  0  0  0  0  0  0  0  0  0  0  0
    1.0920   -2.1069    0.0000 C   0  0  0  0  0  0  0  0  0  0  0  0
    1.8176   -0.1135    0.0000 C   0  0  0  0  0  0  0  0  0  0  0  0
    3.1770    0.5204    0.0000 Br  0  0  0  0  0  0  0  0  0  0  0  0
   -3.0311   -2.2500    0.0000 C   0  0  0  0  0  0  0  0  0  0  0  0
   -3.0311   -0.7500    0.0000 C   0  0  0  0  0  0  0  0  0  0  0  0
   -1.5311   -0.7500    0.0000 C   0  0  0  0  0  0  0  0  0  0  0  0
   -0.0311   -0.7500    0.0000 O   0  0  0  0  0  0  0  0  0  0  0  0
   -5.7024    3.7565    0.0000 H   0  0  0  0  0  0  0  0  0  0  0  0
   -5.9855    1.2709    0.0000 H   0  0  0  0  0  0  0  0  0  0  0  0
   -1.2317    2.6511    0.0000 H   0  0  0  0  0  0  0  0  0  0  0  0
   -2.9121    5.5308    0.0000 H   0  0  0  0  0  0  0  0  0  0  0  0
   -4.9426    3.3912    0.0000 H   0  0  0  0  0  0  0  0  0  0  0  0
   -3.9139    6.3860    0.0000 H   0  0  0  0  0  0  0  0  0  0  0  0
   -5.9751    4.2140    0.0000 H   0  0  0  0  0  0  0  0  0  0  0  0
   -6.0271    6.2011    0.0000 H   0  0  0  0  0  0  0  0  0  0  0  0
   -0.3577    3.6407    0.0000 H   0  0  0  0  0  0  0  0  0  0  0  0
   -2.6387    5.5547    0.0000 H   0  0  0  0  0  0  0  0  0  0  0  0
    0.7829    5.1681    0.0000 H   0  0  0  0  0  0  0  0  0  0  0  0
   -2.5741    6.5032    0.0000 H   0  0  0  0  0  0  0  0  0  0  0  0
   -0.8607    9.6838    0.0000 H   0  0  0  0  0  0  0  0  0  0  0  0
    0.9260    6.1928    0.0000 H   0  0  0  0  0  0  0  0  0  0  0  0
   -0.0925    8.9909    0.0000 H   0  0  0  0  0  0  0  0  0  0  0  0
    2.1675    6.6328    0.0000 H   0  0  0  0  0  0  0  0  0  0  0  0
    1.1414    9.4519    0.0000 H   0  0  0  0  0  0  0  0  0  0  0  0
    3.5770    7.1458    0.0000 H   0  0  0  0  0  0  0  0  0  0  0  0
    2.5510    9.9649    0.0000 H   0  0  0  0  0  0  0  0  0  0  0  0
    4.4736    9.0684    0.0000 H   0  0  0  0  0  0  0  0  0  0  0  0
   -4.5083    0.4895    0.0000 H   0  0  0  0  0  0  0  0  0  0  0  0
   -1.6733    3.7461    0.0000 H   0  0  0  0  0  0  0  0  0  0  0  0
   -4.0445    1.9916    0.0000 H   0  0  0  0  0  0  0  0  0  0  0  0
   -3.9098    3.5307    0.0000 H   0  0  0  0  0  0  0  0  0  0  0  0
   -1.4950    3.9611    0.0000 H   0  0  0  0  0  0  0  0  0  0  0  0
    0.3812    1.6849    0.0000 H   0  0  0  0  0  0  0  0  0  0  0  0
    0.3292    3.6720    0.0000 H   0  0  0  0  0  0  0  0  0  0  0  0
    1.6830    1.2580    0.0000 H   0  0  0  0  0  0  0  0  0  0  0  0
    1.8302   -1.1491    0.0000 H   0  0  0  0  0  0  0  0  0  0  0  0
   -3.0440   -0.7271    0.0000 H   0  0  0  0  0  0  0  0  0  0  0  0
   -2.9456    0.8816    0.0000 H   0  0  0  0  0  0  0  0  0  0  0  0
    0.5068   -2.9819    0.0000 H   0  0  0  0  0  0  0  0  0  0  0  0
   -0.9821   -5.3971    0.0000 H   0  0  0  0  0  0  0  0  0  0  0  0
   -4.0085   -6.9959    0.0000 H   0  0  0  0  0  0  0  0  0  0  0  0
   -2.1714   -5.9352    0.0000 H   0  0  0  0  0  0  0  0  0  0  0  0
   -6.5181   -4.7705    0.0000 H   0  0  0  0  0  0  0  0  0  0  0  0
   -5.4574   -6.6076    0.0000 H   0  0  0  0  0  0  0  0  0  0  0  0
   -5.9800   -2.9598    0.0000 H   0  0  0  0  0  0  0  0  0  0  0  0
   -4.4806   -1.4205    0.0000 H   0  0  0  0  0  0  0  0  0  0  0  0
   -1.3168   -3.1809    0.0000 H   0  0  0  0  0  0  0  0  0  0  0  0
   -3.3399   -0.9734    0.0000 H   0  0  0  0  0  0  0  0  0  0  0  0
   -1.3648    0.0453    0.0000 H   0  0  0  0  0  0  0  0  0  0  0  0
    0.0427   -2.5470    0.0000 H   0  0  0  0  0  0  0  0  0  0  0  0
    0.1720    0.7251    0.0000 H   0  0  0  0  0  0  0  0  0  0  0  0
    2.5645   -1.8207    0.0000 H   0  0  0  0  0  0  0  0  0  0  0  0
   -0.3804   -2.3930    0.0000 H   0  0  0  0  0  0  0  0  0  0  0  0
    1.7260   -3.4663    0.0000 H   0  0  0  0  0  0  0  0  0  0  0  0
    1.3541    1.3131    0.0000 H   0  0  0  0  0  0  0  0  0  0  0  0
    2.7616   -1.2791    0.0000 H   0  0  0  0  0  0  0  0  0  0  0  0
   -2.5181   -3.6595    0.0000 H   0  0  0  0  0  0  0  0  0  0  0  0
   -4.5083   -2.5105    0.0000 H   0  0  0  0  0  0  0  0  0  0  0  0
   -1.7139    0.7388    0.0000 H   0  0  0  0  0  0  0  0  0  0  0  0
   -0.5272   -1.8646    0.0000 H   0  0  0  0  0  0  0  0  0  0  0  0
    0.5550   -2.1308    0.0000 H   0  0  0  0  0  0  0  0  0  0  0  0
  1  2  2  0
  2  3  1  0
  3  4  1  0
  4  5  1  0
  3  6  1  0
  6  7  1  0
  7  8  1  0
  8  9  1  0
  9 10  2  0
  8 11  1  0
 11 12  1  0
 12 13  1  0
  2 14  1  0
 14 15  1  0
 15 16  1  0
 15 17  1  0
 18 15  1  6
 18 19  1  0
 20 19  1  6
 20 21  1  0
 20 22  1  0
 22 23  1  1
 23 24  2  3
 25 24  1  6
 25 26  1  0
 26 27  1  0
 27 28  1  0
 28 29  1  0
 29 30  1  0
 30 31  1  0
 31 32  1  0
 32 33  1  0
 32 34  1  0
 34 35  1  0
 22 36  1  0
 36 37  1  0
 37 38  1  1
 38 39  1  0
 37 14  1  0
 20 18  1  0
 37 22  1  0
 21 18  1  0
 28 25  1  0
 29 25  1  0
  1 40  1  0
  1 41  1  0
  3 42  1  1
  4 43  1  0
  4 44  1  0
  5 45  1  0
  5 46  1  0
  5 47  1  0
  6 48  1  0
  6 49  1  0
  7 50  1  0
  8 51  1  1
  9 52  1  0
 11 53  1  0
 11 54  1  0
 12 55  1  0
 12 56  1  0
 13 57  1  0
 13 58  1  0
 13 59  1  0
 14 60  1  1
 16 61  1  0
 16 62  1  0
 16 63  1  0
 17 64  1  0
 17 65  1  0
 17 66  1  0
 19 67  1  0
 19 68  1  0
 21 69  1  0
 21 70  1  0
 23 71  1  0
 24 72  1  0
 26 73  1  0
 26 74  1  0
 27 75  1  0
 27 76  1  0
 28 77  1  6
 29 78  1  6
 30 79  1  0
 30 80  1  0
 31 81  1  0
 31 82  1  0
 32 83  1  1
 33 84  1  0
 33 85  1  0
 33 86  1  0
 34 87  1  0
 34 88  1  0
 36 89  1  0
 36 90  1  0
 38 91  1  0
 38 92  1  0
 39 93  1  0
M  END
$$$$
