
     RDKit          2D

 59 62  0  0  0  0  0  0  0  0999 V2000
   -9.4947   -1.7687    0.0000 C   0  0  0  0  0  0  0  0  0  0  0  0
   -8.0641   -2.2197    0.0000 C   0  0  0  0  0  0  0  0  0  0  0  0
   -6.6335   -2.6708    0.0000 C   0  0  0  0  0  0  0  0  0  0  0  0
   -5.2029   -3.1219    0.0000 C   0  0  0  0  0  0  0  0  0  0  0  0
   -5.8956   -4.4524    0.0000 F   0  0  0  0  0  0  0  0  0  0  0  0
   -4.0129   -4.0350    0.0000 C   0  0  0  0  0  0  0  0  0  0  0  0
   -2.5607   -3.6213    0.0000 C   0  0  0  0  0  0  0  0  0  0  0  0
   -1.0607   -3.6213    0.0000 C   0  0  0  0  0  0  0  0  0  0  0  0
   -0.0000   -2.5607    0.0000 C   0  0  0  0  0  0  0  0  0  0  0  0
    1.4998   -2.5346    0.0000 Br  0  0  0  0  0  0  0  0  0  0  0  0
   -0.0000   -1.0607    0.0000 C   0  0  0  0  0  0  0  0  0  0  0  0
    1.0607    0.0000    0.0000 C   0  0  0  0  0  0  0  0  0  0  0  0
    0.0000    1.0607    0.0000 C   0  0  0  0  0  0  0  0  0  0  0  0
   -1.0607    0.0000    0.0000 C   0  0  0  0  0  0  0  0  0  0  0  0
   -2.5607    0.0000    0.0000 C   0  0  0  0  0  0  0  0  0  0  0  0
   -3.6213   -1.0607    0.0000 C   0  0  0  0  0  0  0  0  0  0  0  0
   -5.0071   -1.6347    0.0000 O   0  0  0  0  0  0  0  0  0  0  0  0
   -3.6213   -2.5607    0.0000 C   0  0  0  0  0  0  0  0  0  0  0  0
   -4.4973   -2.6915    0.0000 F   0  0  0  0  0  0  0  0  0  0  0  0
   -1.9866   -1.3858    0.0000 C   0  0  0  0  0  0  0  0  0  0  0  0
   -0.6008   -0.8118    0.0000 C   0  0  0  0  0  0  0  0  0  0  0  0
    0.7850   -0.2378    0.0000 C   0  0  0  0  0  0  0  0  0  0  0  0
    2.1708    0.3363    0.0000 O   0  0  0  0  0  0  0  0  0  0  0  0
    2.5464    1.7885    0.0000 F   0  0  0  0  0  0  0  0  0  0  0  0
   -1.4126   -2.7716    0.0000 C   0  0  0  0  0  0  0  0  0  0  0  0
   -2.7984   -3.3457    0.0000 O   0  0  0  0  0  0  0  0  0  0  0  0
   -0.8386   -4.1575    0.0000 C   0  0  0  0  0  0  0  0  0  0  0  0
   -0.2646   -5.5433    0.0000 N   0  0  0  0  0  0  0  0  0  0  0  0
  -10.9252   -1.3176    0.0000 H   0  0  0  0  0  0  0  0  0  0  0  0
   -9.9457   -3.1993    0.0000 H   0  0  0  0  0  0  0  0  0  0  0  0
   -9.0436   -0.3381    0.0000 H   0  0  0  0  0  0  0  0  0  0  0  0
   -8.5151   -3.6503    0.0000 H   0  0  0  0  0  0  0  0  0  0  0  0
   -7.6130   -0.7892    0.0000 H   0  0  0  0  0  0  0  0  0  0  0  0
   -6.1824   -1.2402    0.0000 H   0  0  0  0  0  0  0  0  0  0  0  0
   -7.0846   -4.1014    0.0000 H   0  0  0  0  0  0  0  0  0  0  0  0
   -5.1188   -5.0484    0.0000 H   0  0  0  0  0  0  0  0  0  0  0  0
   -3.5370   -5.4575    0.0000 H   0  0  0  0  0  0  0  0  0  0  0  0
   -2.7823   -5.1049    0.0000 H   0  0  0  0  0  0  0  0  0  0  0  0
    0.2384   -4.3713    0.0000 H   0  0  0  0  0  0  0  0  0  0  0  0
   -1.6226   -5.0121    0.0000 H   0  0  0  0  0  0  0  0  0  0  0  0
    1.0420   -3.6396    0.0000 H   0  0  0  0  0  0  0  0  0  0  0  0
    1.3858   -1.6347    0.0000 H   0  0  0  0  0  0  0  0  0  0  0  0
    2.2427    0.9235    0.0000 H   0  0  0  0  0  0  0  0  0  0  0  0
    2.1213   -1.0607    0.0000 H   0  0  0  0  0  0  0  0  0  0  0  0
   -1.0607    2.1213    0.0000 H   0  0  0  0  0  0  0  0  0  0  0  0
    1.0607    2.1213    0.0000 H   0  0  0  0  0  0  0  0  0  0  0  0
   -1.6347    1.3858    0.0000 H   0  0  0  0  0  0  0  0  0  0  0  0
   -3.1347    1.3858    0.0000 H   0  0  0  0  0  0  0  0  0  0  0  0
   -5.0071   -0.4866    0.0000 H   0  0  0  0  0  0  0  0  0  0  0  0
   -0.8224    0.6717    0.0000 H   0  0  0  0  0  0  0  0  0  0  0  0
    0.4318   -1.8998    0.0000 H   0  0  0  0  0  0  0  0  0  0  0  0
    1.6773   -1.4435    0.0000 H   0  0  0  0  0  0  0  0  0  0  0  0
    0.5634    1.2458    0.0000 H   0  0  0  0  0  0  0  0  0  0  0  0
   -0.1071   -2.0330    0.0000 H   0  0  0  0  0  0  0  0  0  0  0  0
   -3.1740   -4.7979    0.0000 H   0  0  0  0  0  0  0  0  0  0  0  0
   -2.0443   -5.0498    0.0000 H   0  0  0  0  0  0  0  0  0  0  0  0
    0.6450   -3.9358    0.0000 H   0  0  0  0  0  0  0  0  0  0  0  0
    1.2226   -5.7391    0.0000 H   0  0  0  0  0  0  0  0  0  0  0  0
   -1.1777   -6.7333    0.0000 H   0  0  0  0  0  0  0  0  0  0  0  0
  1  2  1  0
  2  3  1  0
  3  4  1  0
  4  5  1  1
  4  6  1  0
  6  7  1  0
  7  8  1  0
  8  9  1  0
  9 10  1  0
  9 11  1  0
 11 12  1  0
 12 13  1  0
 13 14  1  0
 14 15  1  0
 15 16  1  0
 16 17  1  0
 16 18  1  0
 18 19  1  6
 18 20  1  0
 20 21  1  1
 21 22  1  0
 22 23  1  0
 23 24  1  0
 20 25  1  0
 25 26  1  0
 25 27  1  0
 27 28  1  0
 17  4  1  0
 18  7  1  0
 14 11  1  0
 20 15  1  0
  1 29  1  0
  1 30  1  0
  1 31  1  0
  2 32  1  0
  2 33  1  0
  3 34  1  0
  3 35  1  0
  6 36  1  0
  6 37  1  0
  7 38  1  6
  8 39  1  0
  8 40  1  0
  9 41  1  1
 11 42  1  1
 12 43  1  0
 12 44  1  0
 13 45  1  0
 13 46  1  0
 14 47  1  6
 15 48  1  6
 16 49  1  6
 21 50  1  0
 21 51  1  0
 22 52  1  0
 22 53  1  0
 25 54  1  1
 26 55  1  0
 27 56  1  0
 27 57  1  0
 28 58  1  0
 28 59  1  0
M  END
$$$$
