
     RDKit          3D

 19 23  0  0  0  0  0  0  0  0999 V2000
   19.6496  -19.8132  -18.9056 C   0  0  0  0  0  0  0  0  0  0  0  0
   21.1177  -18.9873  -16.8493 C   0  0  0  0  0  0  0  0  0  0  0  0
   20.3357  -19.2590  -15.5545 C   0  0  0  0  0  0  0  0  0  0  0  0
   18.7585  -18.5766  -18.5806 C   0  0  0  0  0  0  0  0  0  0  0  0
   20.4617  -21.4147  -17.6866 C   0  0  0  0  0  0  0  0  0  0  0  0
   17.2349  -18.6671  -18.9135 C   0  0  0  0  0  0  0  0  0  0  0  0
   21.2576  -19.3370  -14.3605 C   0  0  0  0  0  0  0  0  0  0  0  0
   16.4162  -19.3792  -17.7756 C   0  0  0  0  0  0  0  0  0  0  0  0
   20.9205  -19.9798  -18.0339 C   0  0  0  0  0  0  0  0  0  0  0  0
   19.7535  -18.0053  -15.3254 O   0  0  0  0  0  0  0  0  0  0  0  0
   21.8816  -19.5307  -15.6788 C   0  0  0  0  0  0  0  0  0  0  0  0
   16.9186  -20.6157  -20.3682 O   0  0  0  0  0  0  0  0  0  0  0  0
   19.1808  -21.2208  -18.4778 C   0  0  0  0  0  0  0  0  0  0  0  0
   15.1366  -18.0813  -15.8396 C   0  0  0  0  0  0  0  0  0  0  0  0
   13.8550  -19.3191  -17.6951 C   0  0  0  0  0  0  0  0  0  0  0  0
   16.9337  -19.2195  -20.3295 C   0  0  0  0  0  0  0  0  0  0  0  0
   15.1558  -18.6171  -17.2880 C   0  0  0  0  0  0  0  0  0  0  0  0
   14.1979  -17.9590  -18.2810 C   0  0  0  0  0  0  0  0  0  0  0  0
   22.5547  -18.6032  -14.6943 C   0  0  0  0  0  0  0  0  0  0  0  0
  3  2  1  0
  4  1  1  0
  6  4  1  0
  7  3  1  0
  8  6  1  0
  9  1  1  0
  9  2  1  0
  9  5  1  0
 10  3  1  0
 11  2  1  0
 11  3  1  0
 11  7  1  0
 13  1  1  0
 13  5  1  0
 16  6  1  0
 16 12  1  0
 17  8  1  0
 17 14  1  0
 17 15  1  0
 18 15  1  0
 18 17  1  0
 19  7  1  0
 19 11  1  0
M  END
$$$$
