
     RDKit          2D

101106  0  0  0  0  0  0  0  0999 V2000
    3.4693   -5.4058    0.0000 C   0  0  0  0  0  0  0  0  0  0  0  0
    2.8185   -4.0544    0.0000 C   0  0  0  0  0  0  0  0  0  0  0  0
    2.1677   -2.7029    0.0000 C   0  0  0  0  0  0  0  0  0  0  0  0
    1.5169   -1.3515    0.0000 C   0  0  0  0  0  0  0  0  0  0  0  0
    0.8660    0.0000    0.0000 C   0  0  0  0  0  0  0  0  0  0  0  0
    2.2623    0.5480    0.0000 C   0  0  0  0  0  0  0  0  0  0  0  0
    2.4859   -0.9352    0.0000 C   0  0  0  0  0  0  0  0  0  0  0  0
    2.7095   -2.4185    0.0000 C   0  0  0  0  0  0  0  0  0  0  0  0
    2.9330   -3.9017    0.0000 C   0  0  0  0  0  0  0  0  0  0  0  0
    3.9691   -0.7117    0.0000 C   0  0  0  0  0  0  0  0  0  0  0  0
    5.4524   -0.4881    0.0000 C   0  0  0  0  0  0  0  0  0  0  0  0
    2.7045    1.9814    0.0000 O   0  0  0  0  0  0  0  0  0  0  0  0
    1.8595    3.2207    0.0000 C   0  0  0  0  0  0  0  0  0  0  0  0
    3.2558    3.7687    0.0000 C   0  0  0  0  0  0  0  0  0  0  0  0
    4.0380    2.4888    0.0000 C   0  0  0  0  0  0  0  0  0  0  0  0
    4.3805    4.7613    0.0000 C   0  0  0  0  0  0  0  0  0  0  0  0
    5.5532    3.8260    0.0000 C   0  0  0  0  0  0  0  0  0  0  0  0
    6.7260    2.8908    0.0000 C   0  0  0  0  0  0  0  0  0  0  0  0
    6.4885    4.9988    0.0000 C   0  0  0  0  0  0  0  0  0  0  0  0
    7.4237    6.1715    0.0000 C   0  0  0  0  0  0  0  0  0  0  0  0
    6.8757    7.5678    0.0000 C   0  0  0  0  0  0  0  0  0  0  0  0
    8.3589    7.3443    0.0000 As  0  0  0  0  0  3  0  0  0  0  0  0
    8.9069    5.9480    0.0000 C   0  0  0  0  0  0  0  0  0  0  0  0
    8.9443    4.4484    0.0000 O   0  0  0  0  0  0  0  0  0  0  0  0
   10.3772    6.2452    0.0000 C   0  0  0  0  0  0  0  0  0  0  0  0
   11.8475    6.5424    0.0000 O   0  0  0  0  0  0  0  0  0  0  0  0
   10.6744    4.7749    0.0000 O   0  0  0  0  0  0  0  0  0  0  0  0
    2.9586    5.2390    0.0000 C   0  0  0  0  0  0  0  0  0  0  0  0
    3.1821    6.7222    0.0000 O   0  0  0  0  0  0  0  0  0  0  0  0
    1.4590    5.2016    0.0000 O   0  0  0  0  0  0  0  0  0  0  0  0
    0.3637    3.3328    0.0000 C   0  0  0  0  0  0  0  0  0  0  0  0
   -0.6566    2.2332    0.0000 C   0  0  0  0  0  0  0  0  0  0  0  0
   -1.5016    3.4726    0.0000 O   0  0  0  0  0  0  0  0  0  0  0  0
   -0.4330    0.7500    0.0000 N   0  0  0  0  0  0  0  0  0  0  0  0
   -0.4330   -0.7500    0.0000 C   0  0  0  0  0  0  0  0  0  0  0  0
    0.0800   -2.1595    0.0000 C   0  0  0  0  0  0  0  0  0  0  0  0
   -1.3295   -2.6726    0.0000 C   0  0  0  0  0  0  0  0  0  0  0  0
   -0.8165   -4.0821    0.0000 C   0  0  0  0  0  0  0  0  0  0  0  0
   -0.3035   -5.4916    0.0000 C   0  0  0  0  0  0  0  0  0  0  0  0
    0.5930   -3.5691    0.0000 C   0  0  0  0  0  0  0  0  0  0  0  0
    2.0026   -3.0560    0.0000 N   0  0  0  0  0  0  0  0  0  0  0  0
    3.1517   -4.0202    0.0000 S   0  0  0  0  0  4  0  0  0  0  0  0
    4.5612   -3.5072    0.0000 Si  0  0  0  0  0  5  0  0  0  0  0  0
    4.1202   -6.7573    0.0000 H   0  0  0  0  0  0  0  0  0  0  0  0
    2.1179   -6.0566    0.0000 H   0  0  0  0  0  0  0  0  0  0  0  0
    4.8900   -4.9246    0.0000 H   0  0  0  0  0  0  0  0  0  0  0  0
    1.6647   -5.0129    0.0000 H   0  0  0  0  0  0  0  0  0  0  0  0
    1.9309   -5.2636    0.0000 H   0  0  0  0  0  0  0  0  0  0  0  0
    3.5884   -2.2217    0.0000 H   0  0  0  0  0  0  0  0  0  0  0  0
    1.1393   -3.7949    0.0000 H   0  0  0  0  0  0  0  0  0  0  0  0
    0.3630   -2.3100    0.0000 H   0  0  0  0  0  0  0  0  0  0  0  0
    2.9856   -1.0470    0.0000 H   0  0  0  0  0  0  0  0  0  0  0  0
    3.7607    0.6191    0.0000 H   0  0  0  0  0  0  0  0  0  0  0  0
    1.1813   -1.6756    0.0000 H   0  0  0  0  0  0  0  0  0  0  0  0
    4.1544   -2.0158    0.0000 H   0  0  0  0  0  0  0  0  0  0  0  0
    1.2446   -2.0955    0.0000 H   0  0  0  0  0  0  0  0  0  0  0  0
    3.3357   -5.3467    0.0000 H   0  0  0  0  0  0  0  0  0  0  0  0
    4.3181   -3.3259    0.0000 H   0  0  0  0  0  0  0  0  0  0  0  0
    1.4398   -3.7597    0.0000 H   0  0  0  0  0  0  0  0  0  0  0  0
    4.7095   -2.0162    0.0000 H   0  0  0  0  0  0  0  0  0  0  0  0
    3.9281    0.7878    0.0000 H   0  0  0  0  0  0  0  0  0  0  0  0
    6.9356   -0.2645    0.0000 H   0  0  0  0  0  0  0  0  0  0  0  0
    5.6760   -1.9714    0.0000 H   0  0  0  0  0  0  0  0  0  0  0  0
    5.4113    1.0113    0.0000 H   0  0  0  0  0  0  0  0  0  0  0  0
    1.4568    4.6657    0.0000 H   0  0  0  0  0  0  0  0  0  0  0  0
    4.9703    1.3138    0.0000 H   0  0  0  0  0  0  0  0  0  0  0  0
    5.4691    2.9380    0.0000 H   0  0  0  0  0  0  0  0  0  0  0  0
    2.9853    1.4202    0.0000 H   0  0  0  0  0  0  0  0  0  0  0  0
    4.9319    6.1562    0.0000 H   0  0  0  0  0  0  0  0  0  0  0  0
    4.9296    2.4618    0.0000 H   0  0  0  0  0  0  0  0  0  0  0  0
    7.8987    1.9556    0.0000 H   0  0  0  0  0  0  0  0  0  0  0  0
    7.7972    3.9408    0.0000 H   0  0  0  0  0  0  0  0  0  0  0  0
    5.7907    1.7181    0.0000 H   0  0  0  0  0  0  0  0  0  0  0  0
    7.7665    4.2135    0.0000 H   0  0  0  0  0  0  0  0  0  0  0  0
    5.4385    6.0700    0.0000 H   0  0  0  0  0  0  0  0  0  0  0  0
    5.3802    7.4521    0.0000 H   0  0  0  0  0  0  0  0  0  0  0  0
    6.8383    9.0674    0.0000 H   0  0  0  0  0  0  0  0  0  0  0  0
   10.2617    3.7311    0.0000 H   0  0  0  0  0  0  0  0  0  0  0  0
   10.0800    7.7154    0.0000 H   0  0  0  0  0  0  0  0  0  0  0  0
   12.3252    7.9643    0.0000 H   0  0  0  0  0  0  0  0  0  0  0  0
   12.0963    4.2972    0.0000 H   0  0  0  0  0  0  0  0  0  0  0  0
    4.5012    7.4364    0.0000 H   0  0  0  0  0  0  0  0  0  0  0  0
    0.6769    6.4815    0.0000 H   0  0  0  0  0  0  0  0  0  0  0  0
    0.2627    4.8294    0.0000 H   0  0  0  0  0  0  0  0  0  0  0  0
   -0.7153    4.3749    0.0000 H   0  0  0  0  0  0  0  0  0  0  0  0
   -2.0529    1.6852    0.0000 H   0  0  0  0  0  0  0  0  0  0  0  0
   -2.9974    3.3605    0.0000 H   0  0  0  0  0  0  0  0  0  0  0  0
   -1.9310   -0.8285    0.0000 H   0  0  0  0  0  0  0  0  0  0  0  0
    1.5718   -2.0028    0.0000 H   0  0  0  0  0  0  0  0  0  0  0  0
   -2.7391   -3.1856    0.0000 H   0  0  0  0  0  0  0  0  0  0  0  0
   -2.0105   -1.3361    0.0000 H   0  0  0  0  0  0  0  0  0  0  0  0
   -2.2260   -4.5951    0.0000 H   0  0  0  0  0  0  0  0  0  0  0  0
    0.2096   -6.9012    0.0000 H   0  0  0  0  0  0  0  0  0  0  0  0
   -1.7130   -6.0047    0.0000 H   0  0  0  0  0  0  0  0  0  0  0  0
    1.1963   -5.5179    0.0000 H   0  0  0  0  0  0  0  0  0  0  0  0
    0.9304   -5.0306    0.0000 H   0  0  0  0  0  0  0  0  0  0  0  0
    3.0634   -1.9955    0.0000 H   0  0  0  0  0  0  0  0  0  0  0  0
    3.4380   -5.4926    0.0000 H   0  0  0  0  0  0  0  0  0  0  0  0
    5.9707   -2.9942    0.0000 H   0  0  0  0  0  0  0  0  0  0  0  0
    5.2422   -4.8437    0.0000 H   0  0  0  0  0  0  0  0  0  0  0  0
    4.5875   -2.0074    0.0000 H   0  0  0  0  0  0  0  0  0  0  0  0
  1  2  1  0
  2  3  1  0
  3  4  1  0
  4  5  1  0
  5  6  1  0
  6  7  1  0
  7  8  1  0
  8  9  1  0
  7 10  1  0
 10 11  1  0
  6 12  1  0
 12 13  1  0
 13 14  1  0
 14 15  1  0
 14 16  1  0
 16 17  1  0
 17 18  1  0
 17 19  1  0
 19 20  1  0
 20 21  1  0
 21 22  1  0
 22 23  1  0
 23 24  1  0
 23 25  1  0
 25 26  1  0
 25 27  1  0
 16 28  1  0
 28 29  1  0
 28 30  1  0
 13 31  1  0
 31 32  1  0
 32 33  1  0
 32 34  1  0
 34 35  1  0
 35 36  1  0
 36 37  1  0
 37 38  1  0
 38 39  1  0
 38 40  1  0
 40 41  1  0
 41 42  1  0
 42 43  2  3
 34  5  1  0
 40 36  1  0
 35  5  1  0
 28 14  1  0
 22 20  1  0
 23 20  1  0
  1 44  1  0
  1 45  1  0
  1 46  1  0
  2 47  1  0
  2 48  1  0
  3 49  1  0
  3 50  1  0
  4 51  1  0
  4 52  1  0
  6 53  1  0
  7 54  1  0
  8 55  1  0
  8 56  1  0
  9 57  1  0
  9 58  1  0
  9 59  1  0
 10 60  1  0
 10 61  1  0
 11 62  1  0
 11 63  1  0
 11 64  1  0
 13 65  1  0
 15 66  1  0
 15 67  1  0
 15 68  1  0
 16 69  1  0
 17 70  1  0
 18 71  1  0
 18 72  1  0
 18 73  1  0
 19 74  1  0
 19 75  1  0
 21 76  1  0
 21 77  1  0
 24 78  1  0
 25 79  1  0
 26 80  1  0
 27 81  1  0
 29 82  1  0
 30 83  1  0
 31 84  1  0
 31 85  1  0
 32 86  1  0
 33 87  1  0
 35 88  1  0
 36 89  1  0
 37 90  1  0
 37 91  1  0
 38 92  1  0
 39 93  1  0
 39 94  1  0
 39 95  1  0
 40 96  1  0
 41 97  1  0
 42 98  1  0
 43 99  1  0
 43100  1  0
 43101  1  0
M  RAD  1  43   2
M  END
$$$$
