
     RDKit          3D

 45 62  0  0  0  0  0  0  0  0999 V2000
   25.8887  -19.1741  -10.2583 N   0  0  0  0  0  0  0  0  0  0  0  0
   25.7085  -18.5584  -11.5074 C   0  0  0  0  0  0  0  0  0  0  0  0
   24.6045  -17.5164  -11.2485 N   0  0  0  0  0  0  0  0  0  0  0  0
   27.2631  -18.8229  -12.2322 C   0  0  0  0  0  0  0  0  0  0  0  0
   26.8876  -20.1518  -10.4342 C   0  0  0  0  0  0  0  0  0  0  0  0
   27.2524  -20.3412  -11.8101 N   0  0  0  0  0  0  0  0  0  0  0  0
   23.6695  -17.9671  -10.1267 C   0  0  0  0  0  0  0  0  0  0  0  0
   23.1018  -19.4441  -10.2183 C   0  0  0  0  0  0  0  0  0  0  0  0
   23.5726  -18.5632  -11.4509 C   0  0  0  0  0  0  0  0  0  0  0  0
   27.2369  -18.3118  -13.8190 C   0  0  0  0  0  0  0  0  0  0  0  0
   23.1110  -19.8349   -8.7153 C   0  0  0  0  0  0  0  0  0  0  0  0
   24.5457  -20.1761   -8.1045 C   0  0  0  0  0  0  0  0  0  0  0  0
   26.1771  -18.1915  -14.9732 C   0  0  0  0  0  0  0  0  0  0  0  0
   25.2771  -20.5315   -6.7288 C   0  0  0  0  0  0  0  0  0  0  0  0
   26.9960  -20.8162   -6.8395 C   0  0  0  0  0  0  0  0  0  0  0  0
   28.8717  -18.3972  -11.6565 C   0  0  0  0  0  0  0  0  0  0  0  0
   24.5811  -18.3117  -14.9220 C   0  0  0  0  0  0  0  0  0  0  0  0
   26.3017  -16.9906  -16.0842 C   0  0  0  0  0  0  0  0  0  0  0  0
   27.6919  -16.4101  -16.4856 C   0  0  0  0  0  0  0  0  0  0  0  0
   27.2572  -22.0554   -5.9439 C   0  0  0  0  0  0  0  0  0  0  0  0
   28.5797  -22.9107   -5.9805 C   0  0  0  0  0  0  0  0  0  0  0  0
   29.9540  -18.4662  -12.6526 C   0  0  0  0  0  0  0  0  0  0  0  0
   24.1134  -19.3361  -13.8211 C   0  0  0  0  0  0  0  0  0  0  0  0
   28.6083  -23.5336   -7.4062 C   0  0  0  0  0  0  0  0  0  0  0  0
   24.2321  -16.7901  -14.7590 C   0  0  0  0  0  0  0  0  0  0  0  0
   30.2658  -19.9613  -13.0299 C   0  0  0  0  0  0  0  0  0  0  0  0
   24.6426  -19.3836  -12.3320 C   0  0  0  0  0  0  0  0  0  0  0  0
   27.8844  -15.7629  -17.8376 C   0  0  0  0  0  0  0  0  0  0  0  0
   31.2784  -20.9971  -12.4235 C   0  0  0  0  0  0  0  0  0  0  0  0
   28.9039  -17.4913  -13.8364 Si  0  0  0  0  0  4  0  0  0  0  0  0
   26.3795  -17.0276  -13.9628 C   0  0  0  0  0  0  0  0  0  0  0  0
   24.5080  -19.2261   -6.8895 C   0  0  0  0  0  0  0  0  0  0  0  0
   25.5921  -16.2555  -15.0423 C   0  0  0  0  0  0  0  0  0  0  0  0
   27.8430  -21.2374   -8.0939 C   0  0  0  0  0  0  0  0  0  0  0  0
   27.1582  -23.5319   -7.9076 C   0  0  0  0  0  0  0  0  0  0  0  0
   28.5604  -15.8154  -12.9881 N   0  0  0  0  0  0  0  0  0  0  0  0
   30.7029  -22.1340  -11.4496 C   0  0  0  0  0  0  0  0  0  0  0  0
   31.0042  -20.2268  -14.2852 N   0  0  0  0  0  0  0  0  0  0  0  0
   28.7921  -22.4497   -8.5108 C   0  0  0  0  0  0  0  0  0  0  0  0
   29.6518  -22.6524   -7.2189 C   0  0  0  0  0  0  0  0  0  0  0  0
   26.7515  -22.1643   -7.4423 C   0  0  0  0  0  0  0  0  0  0  0  0
   32.6480  -20.5896  -11.6551 C   0  0  0  0  0  0  0  0  0  0  0  0
   33.9353  -20.0033  -12.2814 C   0  0  0  0  0  0  0  0  0  0  0  0
   31.3996  -21.4750  -13.7580 N   0  0  0  0  0  0  0  0  0  0  0  0
   27.7495  -23.3207   -9.2174 C   0  0  0  0  0  0  0  0  0  0  0  0
  2  1  1  0
  3  2  1  0
  4  2  1  0
  5  1  1  0
  6  4  1  0
  6  5  1  0
  7  3  1  0
  8  7  1  0
  9  3  1  0
  9  7  1  0
  9  8  1  0
 10  4  1  0
 11  8  1  0
 12 11  1  0
 13 10  1  0
 14 12  1  0
 15 14  1  0
 16  4  1  0
 17 13  1  0
 18 13  1  0
 19 18  1  0
 20 15  1  0
 21 20  1  0
 22 16  1  0
 23 17  1  0
 24 21  1  0
 25 17  1  0
 26 22  1  0
 27  2  1  0
 27  9  1  0
 27 23  1  0
 28 19  1  0
 29 26  1  0
 30 10  1  0
 30 22  1  0
 31 10  1  0
 31 13  1  0
 32 12  1  0
 32 14  1  0
 33 18  1  0
 33 25  1  0
 33 31  1  0
 34 15  1  0
 35 24  1  0
 36 30  1  0
 37 29  1  0
 38 26  1  0
 39 24  1  0
 39 34  1  0
 40 21  1  0
 40 24  1  0
 40 39  1  0
 41 15  1  0
 41 20  1  0
 41 34  1  0
 41 35  1  0
 42 29  1  0
 43 42  1  0
 44 29  1  0
 44 38  1  0
 45 35  1  0
 45 39  1  0
M  END
$$$$
