
     RDKit          2D

 55 56  0  0  0  0  0  0  0  0999 V2000
    8.4369    2.7311    0.0000 C   0  0  0  0  0  0  0  0  0  0  0  0
    7.2549    3.6546    0.0000 C   0  0  0  0  0  0  0  0  0  0  0  0
    6.0729    4.5781    0.0000 C   0  0  0  0  0  0  0  0  0  0  0  0
    7.1149    5.6571    0.0000 C   0  0  0  0  0  0  0  0  0  0  0  0
    6.4107    6.9815    0.0000 C   0  0  0  0  0  0  0  0  0  0  0  0
    4.9334    6.7210    0.0000 C   0  0  0  0  0  0  0  0  0  0  0  0
    4.7247    5.2356    0.0000 C   0  0  0  0  0  0  0  0  0  0  0  0
    4.2117    3.8261    0.0000 C   0  0  0  0  0  0  0  0  0  0  0  0
    3.6986    2.4165    0.0000 C   0  0  0  0  0  0  0  0  0  0  0  0
    3.1856    1.0070    0.0000 C   0  0  0  0  0  0  0  0  0  0  0  0
    2.6726   -0.4025    0.0000 C   0  0  0  0  0  0  0  0  0  0  0  0
    1.2630    0.1105    0.0000 O   0  0  0  0  0  0  0  0  0  0  0  0
    2.1595   -1.8121    0.0000 C   0  0  0  0  0  0  0  0  0  0  0  0
    1.6465   -3.2216    0.0000 C   0  0  0  0  0  0  0  0  0  0  0  0
    0.7500   -1.2990    0.0000 C   0  0  0  0  0  0  0  0  0  0  0  0
    0.4895   -2.7762    0.0000 N   0  0  0  0  0  0  0  0  0  0  0  0
   -0.9200   -3.2893    0.0000 C   0  0  0  0  0  0  0  0  0  0  0  0
   -2.0691   -2.3251    0.0000 N   0  0  0  0  0  0  0  0  0  0  0  0
   -1.8086   -0.8479    0.0000 C   0  0  0  0  0  0  0  0  0  0  0  0
   -2.0691    0.6293    0.0000 C   0  0  0  0  0  0  0  0  0  0  0  0
   -0.3991   -0.3349    0.0000 S   0  0  0  0  0  0  0  0  0  0  0  0
    9.6189    1.8076    0.0000 H   0  0  0  0  0  0  0  0  0  0  0  0
    9.3604    3.9131    0.0000 H   0  0  0  0  0  0  0  0  0  0  0  0
    7.5134    1.5491    0.0000 H   0  0  0  0  0  0  0  0  0  0  0  0
    7.8186    4.2182    0.0000 H   0  0  0  0  0  0  0  0  0  0  0  0
    6.3314    2.4726    0.0000 H   0  0  0  0  0  0  0  0  0  0  0  0
    5.4390    3.2186    0.0000 H   0  0  0  0  0  0  0  0  0  0  0  0
    8.3584    6.4959    0.0000 H   0  0  0  0  0  0  0  0  0  0  0  0
    7.6979    5.1134    0.0000 H   0  0  0  0  0  0  0  0  0  0  0  0
    5.9972    8.4234    0.0000 H   0  0  0  0  0  0  0  0  0  0  0  0
    7.8014    7.5434    0.0000 H   0  0  0  0  0  0  0  0  0  0  0  0
    3.4344    6.7734    0.0000 H   0  0  0  0  0  0  0  0  0  0  0  0
    4.8288    8.2174    0.0000 H   0  0  0  0  0  0  0  0  0  0  0  0
    3.2692    5.5985    0.0000 H   0  0  0  0  0  0  0  0  0  0  0  0
    5.5482    3.1451    0.0000 H   0  0  0  0  0  0  0  0  0  0  0  0
    2.8021    4.3391    0.0000 H   0  0  0  0  0  0  0  0  0  0  0  0
    2.2891    2.9296    0.0000 H   0  0  0  0  0  0  0  0  0  0  0  0
    5.1082    1.9035    0.0000 H   0  0  0  0  0  0  0  0  0  0  0  0
    1.8491    1.6880    0.0000 H   0  0  0  0  0  0  0  0  0  0  0  0
    4.5951    0.4940    0.0000 H   0  0  0  0  0  0  0  0  0  0  0  0
    4.0821   -0.9156    0.0000 H   0  0  0  0  0  0  0  0  0  0  0  0
    0.8244    1.5449    0.0000 H   0  0  0  0  0  0  0  0  0  0  0  0
    3.5691   -2.3251    0.0000 H   0  0  0  0  0  0  0  0  0  0  0  0
    1.1335   -4.6311    0.0000 H   0  0  0  0  0  0  0  0  0  0  0  0
    3.0560   -3.7346    0.0000 H   0  0  0  0  0  0  0  0  0  0  0  0
    0.1547   -3.0649    0.0000 H   0  0  0  0  0  0  0  0  0  0  0  0
    1.1634    0.1429    0.0000 H   0  0  0  0  0  0  0  0  0  0  0  0
    1.3711   -3.9898    0.0000 H   0  0  0  0  0  0  0  0  0  0  0  0
   -2.0691   -4.2535    0.0000 H   0  0  0  0  0  0  0  0  0  0  0  0
   -0.1700   -4.5883    0.0000 H   0  0  0  0  0  0  0  0  0  0  0  0
   -3.4786   -2.8381    0.0000 H   0  0  0  0  0  0  0  0  0  0  0  0
   -3.3086   -0.8479    0.0000 H   0  0  0  0  0  0  0  0  0  0  0  0
   -2.3296    2.1065    0.0000 H   0  0  0  0  0  0  0  0  0  0  0  0
   -3.5463    0.3689    0.0000 H   0  0  0  0  0  0  0  0  0  0  0  0
   -0.5919    0.8898    0.0000 H   0  0  0  0  0  0  0  0  0  0  0  0
  1  2  1  0
  2  3  1  0
  3  4  1  0
  4  5  1  0
  5  6  1  0
  6  7  1  0
  7  8  1  0
  8  9  1  0
  9 10  1  0
 10 11  1  0
 11 12  1  0
 11 13  1  0
 13 14  1  0
 13 15  1  0
 15 16  1  0
 16 17  1  0
 17 18  1  0
 18 19  1  0
 19 20  1  0
 19 21  1  0
  7  3  1  0
 21 15  1  0
  1 22  1  0
  1 23  1  0
  1 24  1  0
  2 25  1  0
  2 26  1  0
  3 27  1  0
  4 28  1  0
  4 29  1  0
  5 30  1  0
  5 31  1  0
  6 32  1  0
  6 33  1  0
  7 34  1  0
  8 35  1  0
  8 36  1  0
  9 37  1  0
  9 38  1  0
 10 39  1  0
 10 40  1  0
 11 41  1  0
 12 42  1  0
 13 43  1  0
 14 44  1  0
 14 45  1  0
 14 46  1  0
 15 47  1  0
 16 48  1  0
 17 49  1  0
 17 50  1  0
 18 51  1  0
 19 52  1  0
 20 53  1  0
 20 54  1  0
 20 55  1  0
M  END
$$$$
