
     RDKit          2D

 52 54  0  0  0  0  0  0  0  0999 V2000
   -8.4269    0.3824    0.0000 C   0  0  0  0  0  0  0  0  0  0  0  0
   -6.9497    0.1219    0.0000 C   0  0  0  0  0  0  0  0  0  0  0  0
   -5.4725   -0.1386    0.0000 C   0  0  0  0  0  0  0  0  0  0  0  0
   -3.9953   -0.3991    0.0000 C   0  0  0  0  0  0  0  0  0  0  0  0
   -3.9953   -1.8991    0.0000 C   0  0  0  0  0  0  0  0  0  0  0  0
   -3.4822   -3.3086    0.0000 O   0  0  0  0  0  0  0  0  0  0  0  0
   -2.6962   -1.1491    0.0000 C   0  0  0  0  0  0  0  0  0  0  0  0
   -1.7321    0.0000    0.0000 C   0  0  0  0  0  0  0  0  0  0  0  0
   -0.4330   -0.7500    0.0000 C   0  0  0  0  0  0  0  0  0  0  0  0
   -0.4330    0.7500    0.0000 C   0  0  0  0  0  0  0  0  0  0  0  0
    0.8660    0.0000    0.0000 N   0  0  0  0  0  0  0  0  0  0  0  0
    2.3660    0.0000    0.0000 C   0  0  0  0  0  0  0  0  0  0  0  0
    3.1160    1.2990    0.0000 O   0  0  0  0  0  0  0  0  0  0  0  0
    3.1160   -1.2990    0.0000 C   0  0  0  0  0  0  0  0  0  0  0  0
    3.8660   -2.5981    0.0000 C   0  0  0  0  0  0  0  0  0  0  0  0
    2.5670   -3.3481    0.0000 N   0  0  0  0  0  0  0  0  0  0  0  0
    4.6160   -3.8971    0.0000 C   0  0  0  0  0  0  0  0  0  0  0  0
    5.3660   -5.1962    0.0000 C   0  0  0  0  0  0  0  0  0  0  0  0
    6.1160   -6.4952    0.0000 C   0  0  0  0  0  0  0  0  0  0  0  0
    6.8660   -7.7942    0.0000 C   0  0  0  0  0  0  0  0  0  0  0  0
    7.6160   -9.0933    0.0000 C   0  0  0  0  0  0  0  0  0  0  0  0
    8.3660  -10.3923    0.0000 O   0  0  0  0  0  0  0  0  0  0  0  0
   -9.9041    0.6428    0.0000 H   0  0  0  0  0  0  0  0  0  0  0  0
   -8.1664    1.8596    0.0000 H   0  0  0  0  0  0  0  0  0  0  0  0
   -8.6874   -1.0949    0.0000 H   0  0  0  0  0  0  0  0  0  0  0  0
   -6.6892    1.5991    0.0000 H   0  0  0  0  0  0  0  0  0  0  0  0
   -7.2102   -1.3553    0.0000 H   0  0  0  0  0  0  0  0  0  0  0  0
   -5.2120    1.3386    0.0000 H   0  0  0  0  0  0  0  0  0  0  0  0
   -5.8672   -1.4296    0.0000 H   0  0  0  0  0  0  0  0  0  0  0  0
   -3.6579    1.0625    0.0000 H   0  0  0  0  0  0  0  0  0  0  0  0
   -5.2863   -2.2938    0.0000 H   0  0  0  0  0  0  0  0  0  0  0  0
   -4.4464   -4.4577    0.0000 H   0  0  0  0  0  0  0  0  0  0  0  0
   -1.7321   -2.2981    0.0000 H   0  0  0  0  0  0  0  0  0  0  0  0
   -2.5490    1.2580    0.0000 H   0  0  0  0  0  0  0  0  0  0  0  0
   -0.4330   -2.2500    0.0000 H   0  0  0  0  0  0  0  0  0  0  0  0
   -0.4330    2.2500    0.0000 H   0  0  0  0  0  0  0  0  0  0  0  0
    4.4151   -0.5490    0.0000 H   0  0  0  0  0  0  0  0  0  0  0  0
    1.7353   -1.8851    0.0000 H   0  0  0  0  0  0  0  0  0  0  0  0
    5.1651   -1.8481    0.0000 H   0  0  0  0  0  0  0  0  0  0  0  0
    2.3841   -4.8369    0.0000 H   0  0  0  0  0  0  0  0  0  0  0  0
    1.1862   -2.7620    0.0000 H   0  0  0  0  0  0  0  0  0  0  0  0
    5.9151   -3.1471    0.0000 H   0  0  0  0  0  0  0  0  0  0  0  0
    3.4181   -4.7999    0.0000 H   0  0  0  0  0  0  0  0  0  0  0  0
    4.0670   -5.9462    0.0000 H   0  0  0  0  0  0  0  0  0  0  0  0
    6.6651   -4.4462    0.0000 H   0  0  0  0  0  0  0  0  0  0  0  0
    7.4151   -5.7452    0.0000 H   0  0  0  0  0  0  0  0  0  0  0  0
    4.8170   -7.2452    0.0000 H   0  0  0  0  0  0  0  0  0  0  0  0
    5.5670   -8.5442    0.0000 H   0  0  0  0  0  0  0  0  0  0  0  0
    8.1651   -7.0442    0.0000 H   0  0  0  0  0  0  0  0  0  0  0  0
    8.9151   -8.3433    0.0000 H   0  0  0  0  0  0  0  0  0  0  0  0
    6.3170   -9.8433    0.0000 H   0  0  0  0  0  0  0  0  0  0  0  0
    7.6160  -11.6913    0.0000 H   0  0  0  0  0  0  0  0  0  0  0  0
  1  2  1  0
  2  3  1  0
  3  4  1  0
  4  5  1  0
  5  6  1  0
  5  7  1  0
  7  8  1  0
  8  9  1  0
  9 10  1  0
 10 11  1  0
 11 12  1  0
 12 13  2  0
 12 14  1  0
 14 15  1  0
 15 16  1  0
 15 17  1  0
 17 18  1  0
 18 19  1  0
 19 20  1  0
 20 21  1  0
 21 22  1  0
  7  4  1  0
 10  8  1  0
 11  9  1  0
  1 23  1  0
  1 24  1  0
  1 25  1  0
  2 26  1  0
  2 27  1  0
  3 28  1  0
  3 29  1  0
  4 30  1  0
  5 31  1  0
  6 32  1  0
  7 33  1  0
  8 34  1  0
  9 35  1  0
 10 36  1  0
 14 37  1  0
 14 38  1  0
 15 39  1  0
 16 40  1  0
 16 41  1  0
 17 42  1  0
 17 43  1  0
 18 44  1  0
 18 45  1  0
 19 46  1  0
 19 47  1  0
 20 48  1  0
 20 49  1  0
 21 50  1  0
 21 51  1  0
 22 52  1  0
M  END
$$$$
