
     RDKit          2D

 45 47  0  0  0  0  0  0  0  0999 V2000
    0.7943    4.2817    0.0000 C   0  0  0  0  0  0  0  0  0  0  0  0
    2.2102    3.7863    0.0000 C   0  0  0  0  0  0  0  0  0  0  0  0
    3.6260    3.2909    0.0000 C   0  0  0  0  0  0  0  0  0  0  0  0
    5.0418    2.7954    0.0000 C   0  0  0  0  0  0  0  0  0  0  0  0
    6.4576    2.3000    0.0000 C   0  0  0  0  0  0  0  0  0  0  0  0
    7.8735    1.8046    0.0000 O   0  0  0  0  0  0  0  0  0  0  0  0
    9.0104    2.7830    0.0000 N   0  0  0  0  0  0  0  0  0  0  0  0
   10.4262    2.2876    0.0000 C   0  0  0  0  0  0  0  0  0  0  0  0
    3.1306    1.8750    0.0000 C   0  0  0  0  0  0  0  0  0  0  0  0
    2.6351    0.4592    0.0000 C   0  0  0  0  0  0  0  0  0  0  0  0
    4.1351    0.4592    0.0000 C   0  0  0  0  0  0  0  0  0  0  0  0
    4.1351   -1.0408    0.0000 C   0  0  0  0  0  0  0  0  0  0  0  0
    2.6351   -1.0408    0.0000 C   0  0  0  0  0  0  0  0  0  0  0  0
    1.4624   -1.9760    0.0000 O   0  0  0  0  0  0  0  0  0  0  0  0
   -0.0000   -1.0607    0.0000 C   0  0  0  0  0  0  0  0  0  0  0  0
    1.0607    0.0000    0.0000 N   0  0  0  0  0  0  0  0  0  0  0  0
    0.0000    1.0607    0.0000 C   0  0  0  0  0  0  0  0  0  0  0  0
   -1.0607    0.0000    0.0000 C   0  0  0  0  0  0  0  0  0  0  0  0
    1.4624    1.3944    0.0000 C   0  0  0  0  0  0  0  0  0  0  0  0
   -0.6215    4.7771    0.0000 H   0  0  0  0  0  0  0  0  0  0  0  0
    1.2897    5.6975    0.0000 H   0  0  0  0  0  0  0  0  0  0  0  0
   -0.0290    3.0278    0.0000 H   0  0  0  0  0  0  0  0  0  0  0  0
    1.8179    2.9921    0.0000 H   0  0  0  0  0  0  0  0  0  0  0  0
    2.7056    5.2021    0.0000 H   0  0  0  0  0  0  0  0  0  0  0  0
    4.1214    4.7067    0.0000 H   0  0  0  0  0  0  0  0  0  0  0  0
    5.5372    4.2113    0.0000 H   0  0  0  0  0  0  0  0  0  0  0  0
    4.7785    2.0430    0.0000 H   0  0  0  0  0  0  0  0  0  0  0  0
    6.9530    3.7158    0.0000 H   0  0  0  0  0  0  0  0  0  0  0  0
    6.1385    0.8344    0.0000 H   0  0  0  0  0  0  0  0  0  0  0  0
    8.7315    4.2569    0.0000 H   0  0  0  0  0  0  0  0  0  0  0  0
   11.8421    1.7922    0.0000 H   0  0  0  0  0  0  0  0  0  0  0  0
   10.9217    3.7034    0.0000 H   0  0  0  0  0  0  0  0  0  0  0  0
    9.9308    0.8718    0.0000 H   0  0  0  0  0  0  0  0  0  0  0  0
    2.2651    2.0635    0.0000 H   0  0  0  0  0  0  0  0  0  0  0  0
    3.8830    1.6117    0.0000 H   0  0  0  0  0  0  0  0  0  0  0  0
    5.6240    0.2764    0.0000 H   0  0  0  0  0  0  0  0  0  0  0  0
    4.1351    1.9592    0.0000 H   0  0  0  0  0  0  0  0  0  0  0  0
    4.1351   -2.5408    0.0000 H   0  0  0  0  0  0  0  0  0  0  0  0
    5.6351   -1.0408    0.0000 H   0  0  0  0  0  0  0  0  0  0  0  0
    3.1306   -2.4566    0.0000 H   0  0  0  0  0  0  0  0  0  0  0  0
   -0.3630    2.5161    0.0000 H   0  0  0  0  0  0  0  0  0  0  0  0
   -2.1213   -1.0607    0.0000 H   0  0  0  0  0  0  0  0  0  0  0  0
   -2.1213    1.0607    0.0000 H   0  0  0  0  0  0  0  0  0  0  0  0
    0.8116    2.7459    0.0000 H   0  0  0  0  0  0  0  0  0  0  0  0
    2.3740    2.5857    0.0000 H   0  0  0  0  0  0  0  0  0  0  0  0
  1  2  1  0
  2  3  1  0
  3  4  1  0
  4  5  1  0
  5  6  1  0
  6  7  1  0
  7  8  1  0
  3  9  1  0
  9 10  1  0
 10 11  1  0
 11 12  1  0
 12 13  1  0
 13 14  1  0
 14 15  1  0
 15 16  2  0
 16 17  1  0
 17 18  1  0
 17 19  1  0
 13 10  1  0
 18 15  1  0
 19 10  1  0
  1 20  1  0
  1 21  1  0
  1 22  1  0
  2 23  1  0
  2 24  1  0
  3 25  1  0
  4 26  1  0
  4 27  1  0
  5 28  1  0
  5 29  1  0
  7 30  1  0
  8 31  1  0
  8 32  1  0
  8 33  1  0
  9 34  1  0
  9 35  1  0
 11 36  1  0
 11 37  1  0
 12 38  1  0
 12 39  1  0
 13 40  1  0
 17 41  1  0
 18 42  1  0
 18 43  1  0
 19 44  1  0
 19 45  1  0
M  END
$$$$
