
     RDKit          2D

 34 39  0  0  0  0  0  0  0  0999 V2000
    1.1021   -3.3493    0.0000 C   0  0  0  0  0  0  0  0  0  0  0  0
   -0.1679   -2.5512    0.0000 C   0  0  0  0  0  0  0  0  0  0  0  0
   -1.4380   -3.3493    0.0000 C   0  0  0  0  0  0  0  0  0  0  0  0
   -2.8539   -2.8539    0.0000 C   0  0  0  0  0  0  0  0  0  0  0  0
   -3.3493   -1.4380    0.0000 N   0  0  0  0  0  0  0  0  0  0  0  0
   -2.5512   -0.1679    0.0000 C   0  0  0  0  0  0  0  0  0  0  0  0
   -3.9671    0.3275    0.0000 C   0  0  0  0  0  0  0  0  0  0  0  0
   -4.2459    1.8013    0.0000 O   0  0  0  0  0  0  0  0  0  0  0  0
   -1.0607    0.0000    0.0000 C   0  0  0  0  0  0  0  0  0  0  0  0
   -0.0000   -1.0607    0.0000 C   0  0  0  0  0  0  0  0  0  0  0  0
    0.3607    0.0000    0.0000 O   0  0  0  0  0  0  0  0  0  0  0  0
    0.0000    1.0607    0.0000 C   0  0  0  0  0  0  0  0  0  0  0  0
    1.0702    2.1117    0.0000 C   0  0  0  0  0  0  0  0  0  0  0  0
    2.9343    0.4779    0.0000 C   0  0  0  0  0  0  0  0  0  0  0  0
    2.0327   -0.7209    0.0000 C   0  0  0  0  0  0  0  0  0  0  0  0
    1.3198   -2.0407    0.0000 C   0  0  0  0  0  0  0  0  0  0  0  0
    1.4453    0.6593    0.0000 C   0  0  0  0  0  0  0  0  0  0  0  0
    2.3722   -4.1473    0.0000 H   0  0  0  0  0  0  0  0  0  0  0  0
    0.4649   -4.7072    0.0000 H   0  0  0  0  0  0  0  0  0  0  0  0
    2.1838   -2.3100    0.0000 H   0  0  0  0  0  0  0  0  0  0  0  0
   -0.5146   -4.5313    0.0000 H   0  0  0  0  0  0  0  0  0  0  0  0
   -2.0753   -4.7072    0.0000 H   0  0  0  0  0  0  0  0  0  0  0  0
   -3.2022   -4.3128    0.0000 H   0  0  0  0  0  0  0  0  0  0  0  0
   -4.3444   -3.0218    0.0000 H   0  0  0  0  0  0  0  0  0  0  0  0
   -4.8492   -1.4530    0.0000 H   0  0  0  0  0  0  0  0  0  0  0  0
   -2.5662    1.3320    0.0000 H   0  0  0  0  0  0  0  0  0  0  0  0
   -5.2148   -0.5051    0.0000 H   0  0  0  0  0  0  0  0  0  0  0  0
   -1.5419    1.4207    0.0000 H   0  0  0  0  0  0  0  0  0  0  0  0
   -0.5094   -0.4475    0.0000 H   0  0  0  0  0  0  0  0  0  0  0  0
    1.4716    3.5570    0.0000 H   0  0  0  0  0  0  0  0  0  0  0  0
    4.3145    1.0652    0.0000 H   0  0  0  0  0  0  0  0  0  0  0  0
    3.2955   -1.5304    0.0000 H   0  0  0  0  0  0  0  0  0  0  0  0
    2.7651   -2.4420    0.0000 H   0  0  0  0  0  0  0  0  0  0  0  0
    1.6147   -3.5114    0.0000 H   0  0  0  0  0  0  0  0  0  0  0  0
  1  2  1  0
  2  3  1  0
  3  4  1  0
  4  5  1  0
  5  6  1  0
  6  7  1  0
  7  8  2  0
  6  9  1  0
  9 10  1  0
 10 11  1  0
 11 12  1  0
 12 13  1  0
 13 14  1  0
 14 15  1  0
 15 16  1  0
 15 17  1  0
 10  2  1  0
 17 12  1  0
 16  2  1  0
 12  9  1  0
 17 13  1  0
 17 14  1  0
  1 18  1  0
  1 19  1  0
  1 20  1  0
  3 21  1  0
  3 22  1  0
  4 23  1  0
  4 24  1  0
  5 25  1  0
  6 26  1  0
  7 27  1  0
  9 28  1  0
 10 29  1  0
 13 30  1  0
 14 31  1  0
 15 32  1  0
 16 33  1  0
 16 34  1  0
M  END
$$$$
