
     RDKit          2D

114120  0  0  0  0  0  0  0  0999 V2000
    6.5047  -17.3733    0.0000 C   0  0  0  0  0  0  0  0  0  0  0  0
    6.1364  -15.9192    0.0000 C   0  0  0  0  0  0  0  0  0  0  0  0
    5.7682  -14.4651    0.0000 C   0  0  0  0  0  0  0  0  0  0  0  0
    5.4000  -13.0110    0.0000 C   0  0  0  0  0  0  0  0  0  0  0  0
    3.9566  -12.6028    0.0000 N   0  0  0  0  0  0  0  0  0  0  0  0
    6.4752  -11.9650    0.0000 C   0  0  0  0  0  0  0  0  0  0  0  0
    7.5503  -10.9191    0.0000 C   0  0  0  0  0  0  0  0  0  0  0  0
    5.4292  -10.8898    0.0000 C   0  0  0  0  0  0  0  0  0  0  0  0
    4.3833   -9.8147    0.0000 C   0  0  0  0  0  0  0  0  0  0  0  0
    3.3373   -8.7395    0.0000 C   0  0  0  0  0  0  0  0  0  0  0  0
    4.7421   -8.2135    0.0000 C   0  0  0  0  0  0  0  0  0  0  0  0
    5.9000   -7.2599    0.0000 C   0  0  0  0  0  0  0  0  0  0  0  0
    6.6855   -5.9821    0.0000 C   0  0  0  0  0  0  0  0  0  0  0  0
    8.1576   -5.6945    0.0000 C   0  0  0  0  0  0  0  0  0  0  0  0
    7.0135   -4.5184    0.0000 C   0  0  0  0  0  0  0  0  0  0  0  0
    6.8485   -3.0275    0.0000 C   0  0  0  0  0  0  0  0  0  0  0  0
    6.2083   -1.6709    0.0000 C   0  0  0  0  0  0  0  0  0  0  0  0
    5.1624   -0.5958    0.0000 C   0  0  0  0  0  0  0  0  0  0  0  0
    3.8240    0.0815    0.0000 C   0  0  0  0  0  0  0  0  0  0  0  0
    2.3382    0.2876    0.0000 C   0  0  0  0  0  0  0  0  0  0  0  0
    0.8660    0.0000    0.0000 C   0  0  0  0  0  0  0  0  0  0  0  0
   -0.4330    0.7500    0.0000 C   0  0  0  0  0  0  0  0  0  0  0  0
   -0.4330   -0.7500    0.0000 C   0  0  0  0  0  0  0  0  0  0  0  0
   -1.4181   -1.8812    0.0000 C   0  0  0  0  0  0  0  0  0  0  0  0
   -1.9826   -3.2709    0.0000 C   0  0  0  0  0  0  0  0  0  0  0  0
   -2.0652   -4.7686    0.0000 C   0  0  0  0  0  0  0  0  0  0  0  0
   -3.4510   -4.3175    0.0000 C   0  0  0  0  0  0  0  0  0  0  0  0
   -4.9270   -4.5848    0.0000 C   0  0  0  0  0  0  0  0  0  0  0  0
   -6.0716   -5.5542    0.0000 C   0  0  0  0  0  0  0  0  0  0  0  0
   -7.4835   -5.0477    0.0000 C   0  0  0  0  0  0  0  0  0  0  0  0
   -7.9900   -6.4595    0.0000 C   0  0  0  0  0  0  0  0  0  0  0  0
   -8.4966   -7.8714    0.0000 N   0  0  0  0  0  0  0  0  0  0  0  0
   -6.5781   -6.9661    0.0000 C   0  0  0  0  0  0  0  0  0  0  0  0
   -7.7228   -7.9355    0.0000 N   0  0  0  0  0  0  0  0  0  0  0  0
   -6.3109   -8.4421    0.0000 C   0  0  0  0  0  0  0  0  0  0  0  0
   -5.3414   -9.5867    0.0000 C   0  0  0  0  0  0  0  0  0  0  0  0
   -3.9295  -10.0933    0.0000 C   0  0  0  0  0  0  0  0  0  0  0  0
   -2.4535   -9.8260    0.0000 C   0  0  0  0  0  0  0  0  0  0  0  0
   -1.3089   -8.8566    0.0000 C   0  0  0  0  0  0  0  0  0  0  0  0
   -0.8024   -7.4447    0.0000 C   0  0  0  0  0  0  0  0  0  0  0  0
    0.4063   -8.3330    0.0000 C   0  0  0  0  0  0  0  0  0  0  0  0
    1.8379   -8.7808    0.0000 C   0  0  0  0  0  0  0  0  0  0  0  0
   -1.6571   -6.2120    0.0000 C   0  0  0  0  0  0  0  0  0  0  0  0
   -3.0136   -6.8522    0.0000 S   0  0  0  0  0  0  0  0  0  0  0  0
   -1.7321    0.0000    0.0000 C   0  0  0  0  0  0  0  0  0  0  0  0
    6.8729  -18.8274    0.0000 H   0  0  0  0  0  0  0  0  0  0  0  0
    5.0506  -17.7415    0.0000 H   0  0  0  0  0  0  0  0  0  0  0  0
    7.9588  -17.0050    0.0000 H   0  0  0  0  0  0  0  0  0  0  0  0
    4.6823  -16.2874    0.0000 H   0  0  0  0  0  0  0  0  0  0  0  0
    7.5905  -15.5509    0.0000 H   0  0  0  0  0  0  0  0  0  0  0  0
    4.3141  -14.8333    0.0000 H   0  0  0  0  0  0  0  0  0  0  0  0
    7.2223  -14.0968    0.0000 H   0  0  0  0  0  0  0  0  0  0  0  0
    2.8814  -13.6487    0.0000 H   0  0  0  0  0  0  0  0  0  0  0  0
    7.5211  -13.0402    0.0000 H   0  0  0  0  0  0  0  0  0  0  0  0
    8.6255   -9.8731    0.0000 H   0  0  0  0  0  0  0  0  0  0  0  0
    8.5963  -11.9942    0.0000 H   0  0  0  0  0  0  0  0  0  0  0  0
    6.6432   -9.7244    0.0000 H   0  0  0  0  0  0  0  0  0  0  0  0
    6.3689   -9.7206    0.0000 H   0  0  0  0  0  0  0  0  0  0  0  0
    4.1329  -11.6445    0.0000 H   0  0  0  0  0  0  0  0  0  0  0  0
    5.6796   -9.0600    0.0000 H   0  0  0  0  0  0  0  0  0  0  0  0
    3.4436  -10.9839    0.0000 H   0  0  0  0  0  0  0  0  0  0  0  0
    2.7729  -10.1292    0.0000 H   0  0  0  0  0  0  0  0  0  0  0  0
    6.0805   -8.8908    0.0000 H   0  0  0  0  0  0  0  0  0  0  0  0
    5.0243   -9.6867    0.0000 H   0  0  0  0  0  0  0  0  0  0  0  0
    7.3495   -7.6455    0.0000 H   0  0  0  0  0  0  0  0  0  0  0  0
    6.6453   -8.5617    0.0000 H   0  0  0  0  0  0  0  0  0  0  0  0
    7.5402   -7.2147    0.0000 H   0  0  0  0  0  0  0  0  0  0  0  0
    9.6298   -5.4069    0.0000 H   0  0  0  0  0  0  0  0  0  0  0  0
    8.6225   -7.1206    0.0000 H   0  0  0  0  0  0  0  0  0  0  0  0
    8.2349   -4.1965    0.0000 H   0  0  0  0  0  0  0  0  0  0  0  0
    8.3125   -3.7684    0.0000 H   0  0  0  0  0  0  0  0  0  0  0  0
    8.4012   -5.0879    0.0000 H   0  0  0  0  0  0  0  0  0  0  0  0
    7.9641   -2.0248    0.0000 H   0  0  0  0  0  0  0  0  0  0  0  0
    8.3459   -3.1155    0.0000 H   0  0  0  0  0  0  0  0  0  0  0  0
    6.9380   -0.3604    0.0000 H   0  0  0  0  0  0  0  0  0  0  0  0
    7.6915   -1.4471    0.0000 H   0  0  0  0  0  0  0  0  0  0  0  0
    5.4269    0.8807    0.0000 H   0  0  0  0  0  0  0  0  0  0  0  0
    6.4925    0.0975    0.0000 H   0  0  0  0  0  0  0  0  0  0  0  0
    3.5948    1.5639    0.0000 H   0  0  0  0  0  0  0  0  0  0  0  0
    4.8570    1.1692    0.0000 H   0  0  0  0  0  0  0  0  0  0  0  0
    1.6401    1.6152    0.0000 H   0  0  0  0  0  0  0  0  0  0  0  0
    2.9621    1.6517    0.0000 H   0  0  0  0  0  0  0  0  0  0  0  0
    0.9307    1.4986    0.0000 H   0  0  0  0  0  0  0  0  0  0  0  0
   -0.4330    2.2500    0.0000 H   0  0  0  0  0  0  0  0  0  0  0  0
   -2.6960   -1.0957    0.0000 H   0  0  0  0  0  0  0  0  0  0  0  0
   -3.3954   -2.7669    0.0000 H   0  0  0  0  0  0  0  0  0  0  0  0
   -3.4719   -5.2895    0.0000 H   0  0  0  0  0  0  0  0  0  0  0  0
   -4.2069   -3.0219    0.0000 H   0  0  0  0  0  0  0  0  0  0  0  0
   -2.7997   -2.9663    0.0000 H   0  0  0  0  0  0  0  0  0  0  0  0
   -6.1290   -3.6875    0.0000 H   0  0  0  0  0  0  0  0  0  0  0  0
   -4.8554   -3.0865    0.0000 H   0  0  0  0  0  0  0  0  0  0  0  0
   -6.6269   -6.9476    0.0000 H   0  0  0  0  0  0  0  0  0  0  0  0
   -8.8953   -4.5411    0.0000 H   0  0  0  0  0  0  0  0  0  0  0  0
   -7.1528   -3.5846    0.0000 H   0  0  0  0  0  0  0  0  0  0  0  0
   -9.4019   -5.9530    0.0000 H   0  0  0  0  0  0  0  0  0  0  0  0
   -9.9726   -8.1387    0.0000 H   0  0  0  0  0  0  0  0  0  0  0  0
   -8.0018   -9.2875    0.0000 H   0  0  0  0  0  0  0  0  0  0  0  0
   -7.4555   -9.4115    0.0000 H   0  0  0  0  0  0  0  0  0  0  0  0
   -9.2153   -7.7857    0.0000 H   0  0  0  0  0  0  0  0  0  0  0  0
   -6.8906   -9.8255    0.0000 H   0  0  0  0  0  0  0  0  0  0  0  0
   -7.6673   -9.0824    0.0000 H   0  0  0  0  0  0  0  0  0  0  0  0
   -5.5174  -11.0764    0.0000 H   0  0  0  0  0  0  0  0  0  0  0  0
   -6.6748  -10.2739    0.0000 H   0  0  0  0  0  0  0  0  0  0  0  0
   -3.3372  -11.4713    0.0000 H   0  0  0  0  0  0  0  0  0  0  0  0
   -4.7407  -11.3550    0.0000 H   0  0  0  0  0  0  0  0  0  0  0  0
   -1.2515  -10.7233    0.0000 H   0  0  0  0  0  0  0  0  0  0  0  0
   -2.5251  -11.3243    0.0000 H   0  0  0  0  0  0  0  0  0  0  0  0
    0.1482   -9.2128    0.0000 H   0  0  0  0  0  0  0  0  0  0  0  0
   -0.6218  -10.1899    0.0000 H   0  0  0  0  0  0  0  0  0  0  0  0
   -1.5925   -8.7197    0.0000 H   0  0  0  0  0  0  0  0  0  0  0  0
    0.3883   -9.8329    0.0000 H   0  0  0  0  0  0  0  0  0  0  0  0
   -0.6727   -9.3751    0.0000 H   0  0  0  0  0  0  0  0  0  0  0  0
    2.3079  -10.2053    0.0000 H   0  0  0  0  0  0  0  0  0  0  0  0
    0.9980  -10.0236    0.0000 H   0  0  0  0  0  0  0  0  0  0  0  0
  1  2  1  0
  2  3  1  0
  3  4  1  0
  4  5  2  3
  4  6  1  0
  6  7  1  0
  6  8  1  0
  8  9  1  0
  9 10  1  0
 10 11  1  0
 11 12  1  0
 12 13  1  0
 13 14  1  0
 13 15  1  0
 15 16  1  0
 16 17  1  0
 17 18  1  0
 18 19  1  0
 19 20  1  0
 20 21  1  0
 21 22  1  0
 22 23  1  0
 23 24  1  0
 24 25  1  0
 25 26  1  0
 26 27  1  0
 27 28  1  0
 28 29  1  0
 29 30  1  0
 30 31  1  0
 31 32  1  0
 31 33  1  0
 33 34  1  0
 33 35  1  0
 35 36  1  0
 36 37  1  0
 37 38  1  0
 38 39  1  0
 39 40  1  0
 40 41  1  0
 41 42  1  0
 40 43  1  0
 43 44  2  0
 25 45  1  0
 42 10  1  0
 23 21  1  0
 45 24  1  0
 45 22  1  0
 45 23  1  0
 43 26  1  0
 33 29  1  0
  1 46  1  0
  1 47  1  0
  1 48  1  0
  2 49  1  0
  2 50  1  0
  3 51  1  0
  3 52  1  0
  5 53  1  0
  6 54  1  0
  7 55  1  0
  7 56  1  0
  7 57  1  0
  8 58  1  0
  8 59  1  0
  9 60  1  0
  9 61  1  0
 10 62  1  0
 11 63  1  0
 11 64  1  0
 12 65  1  0
 12 66  1  0
 13 67  1  0
 14 68  1  0
 14 69  1  0
 14 70  1  0
 15 71  1  0
 15 72  1  0
 16 73  1  0
 16 74  1  0
 17 75  1  0
 17 76  1  0
 18 77  1  0
 18 78  1  0
 19 79  1  0
 19 80  1  0
 20 81  1  0
 20 82  1  0
 21 83  1  0
 22 84  1  0
 24 85  1  0
 25 86  1  0
 26 87  1  0
 27 88  1  0
 27 89  1  0
 28 90  1  0
 28 91  1  0
 29 92  1  0
 30 93  1  0
 30 94  1  0
 31 95  1  0
 32 96  1  0
 32 97  1  0
 34 98  1  0
 34 99  1  0
 35100  1  0
 35101  1  0
 36102  1  0
 36103  1  0
 37104  1  0
 37105  1  0
 38106  1  0
 38107  1  0
 39108  1  0
 39109  1  0
 40110  1  0
 41111  1  0
 41112  1  0
 42113  1  0
 42114  1  0
M  END
$$$$
