
     RDKit          2D

 48 53  0  0  0  0  0  0  0  0999 V2000
    4.2238   -3.3011    0.0000 C   0  0  0  0  0  0  0  0  0  0  0  0
    2.7972   -2.8375    0.0000 C   0  0  0  0  0  0  0  0  0  0  0  0
    1.3706   -2.3740    0.0000 C   0  0  0  0  0  0  0  0  0  0  0  0
    1.9807   -1.0037    0.0000 C   0  0  0  0  0  0  0  0  0  0  0  0
    2.8624    0.2098    0.0000 C   0  0  0  0  0  0  0  0  0  0  0  0
    3.7441    1.4234    0.0000 C   0  0  0  0  0  0  0  0  0  0  0  0
    4.7861    0.3443    0.0000 C   0  0  0  0  0  0  0  0  0  0  0  0
    6.2415    0.7072    0.0000 C   0  0  0  0  0  0  0  0  0  0  0  0
    6.6550    2.1491    0.0000 C   0  0  0  0  0  0  0  0  0  0  0  0
    5.6130    3.2281    0.0000 C   0  0  0  0  0  0  0  0  0  0  0  0
    4.1576    2.8652    0.0000 C   0  0  0  0  0  0  0  0  0  0  0  0
    0.8660    0.0000    0.0000 C   0  0  0  0  0  0  0  0  0  0  0  0
   -0.4330    0.7500    0.0000 C   0  0  0  0  0  0  0  0  0  0  0  0
   -1.2869   -1.2732    0.0000 C   0  0  0  0  0  0  0  0  0  0  0  0
   -0.1211   -2.2172    0.0000 C   0  0  0  0  0  0  0  0  0  0  0  0
   -1.1248   -3.3319    0.0000 C   0  0  0  0  0  0  0  0  0  0  0  0
   -1.6868   -4.7227    0.0000 C   0  0  0  0  0  0  0  0  0  0  0  0
   -0.7633   -5.9047    0.0000 C   0  0  0  0  0  0  0  0  0  0  0  0
   -0.2013   -4.5140    0.0000 C   0  0  0  0  0  0  0  0  0  0  0  0
   -0.4330   -0.7500    0.0000 C   0  0  0  0  0  0  0  0  0  0  0  0
    5.6504   -3.7646    0.0000 H   0  0  0  0  0  0  0  0  0  0  0  0
    4.6873   -1.8745    0.0000 H   0  0  0  0  0  0  0  0  0  0  0  0
    3.7603   -4.7276    0.0000 H   0  0  0  0  0  0  0  0  0  0  0  0
    2.3337   -4.2641    0.0000 H   0  0  0  0  0  0  0  0  0  0  0  0
    3.1341   -2.1151    0.0000 H   0  0  0  0  0  0  0  0  0  0  0  0
    1.2399   -3.8683    0.0000 H   0  0  0  0  0  0  0  0  0  0  0  0
    2.7145   -1.3152    0.0000 H   0  0  0  0  0  0  0  0  0  0  0  0
    3.9594   -0.8132    0.0000 H   0  0  0  0  0  0  0  0  0  0  0  0
    1.7654    1.2329    0.0000 H   0  0  0  0  0  0  0  0  0  0  0  0
    2.3959    2.0809    0.0000 H   0  0  0  0  0  0  0  0  0  0  0  0
    5.3962   -1.0260    0.0000 H   0  0  0  0  0  0  0  0  0  0  0  0
    3.6540   -0.6398    0.0000 H   0  0  0  0  0  0  0  0  0  0  0  0
    7.2835   -0.3718    0.0000 H   0  0  0  0  0  0  0  0  0  0  0  0
    8.1104    2.5120    0.0000 H   0  0  0  0  0  0  0  0  0  0  0  0
    5.0029    4.5984    0.0000 H   0  0  0  0  0  0  0  0  0  0  0  0
    6.8566    4.0669    0.0000 H   0  0  0  0  0  0  0  0  0  0  0  0
    2.6658    3.0220    0.0000 H   0  0  0  0  0  0  0  0  0  0  0  0
    4.0529    4.3616    0.0000 H   0  0  0  0  0  0  0  0  0  0  0  0
    1.5932    1.3119    0.0000 H   0  0  0  0  0  0  0  0  0  0  0  0
   -1.1830    2.0490    0.0000 H   0  0  0  0  0  0  0  0  0  0  0  0
   -2.3659   -2.3152    0.0000 H   0  0  0  0  0  0  0  0  0  0  0  0
   -2.5590   -0.4784    0.0000 H   0  0  0  0  0  0  0  0  0  0  0  0
   -2.4843   -2.6980    0.0000 H   0  0  0  0  0  0  0  0  0  0  0  0
   -3.1722   -4.9315    0.0000 H   0  0  0  0  0  0  0  0  0  0  0  0
   -1.7670   -7.0194    0.0000 H   0  0  0  0  0  0  0  0  0  0  0  0
    0.5088   -6.6996    0.0000 H   0  0  0  0  0  0  0  0  0  0  0  0
    1.2984   -4.4878    0.0000 H   0  0  0  0  0  0  0  0  0  0  0  0
   -1.8946   -1.0875    0.0000 H   0  0  0  0  0  0  0  0  0  0  0  0
  1  2  1  0
  2  3  1  0
  3  4  1  0
  4  5  1  0
  5  6  1  0
  6  7  1  0
  7  8  1  0
  8  9  2  0
  9 10  1  0
 10 11  1  0
  4 12  1  0
 12 13  1  0
 13 14  1  0
 14 15  1  0
 15 16  1  0
 16 17  1  0
 17 18  1  0
 18 19  1  0
 15 20  1  0
 15  3  1  0
 19 16  1  0
 11  6  1  0
 20 12  1  0
 20 13  1  0
 19 17  1  0
  1 21  1  0
  1 22  1  0
  1 23  1  0
  2 24  1  0
  2 25  1  0
  3 26  1  0
  4 27  1  0
  5 28  1  0
  5 29  1  0
  6 30  1  0
  7 31  1  0
  7 32  1  0
  8 33  1  0
  9 34  1  0
 10 35  1  0
 10 36  1  0
 11 37  1  0
 11 38  1  0
 12 39  1  0
 13 40  1  0
 14 41  1  0
 14 42  1  0
 16 43  1  0
 17 44  1  0
 18 45  1  0
 18 46  1  0
 19 47  1  0
 20 48  1  0
M  END
$$$$
