
     RDKit          2D

 52 54  0  0  0  0  0  0  0  0999 V2000
    6.3640    1.0607    0.0000 C   0  0  0  0  0  0  0  0  0  0  0  0
    5.3033   -0.0000    0.0000 C   0  0  0  0  0  0  0  0  0  0  0  0
    4.2426   -1.0607    0.0000 C   0  0  0  0  0  0  0  0  0  0  0  0
    3.1820   -2.1213    0.0000 C   0  0  0  0  0  0  0  0  0  0  0  0
    2.1213   -3.1820    0.0000 C   0  0  0  0  0  0  0  0  0  0  0  0
    1.0607   -2.1213    0.0000 C   0  0  0  0  0  0  0  0  0  0  0  0
   -0.0000   -1.0607    0.0000 C   0  0  0  0  0  0  0  0  0  0  0  0
   -1.0607   -2.1213    0.0000 Cl  0  0  0  0  0  0  0  0  0  0  0  0
    1.0607    0.0000    0.0000 C   0  0  0  0  0  0  0  0  0  0  0  0
    0.0000    1.0607    0.0000 O   0  0  0  0  0  0  0  0  0  0  0  0
   -1.0607    0.0000    0.0000 C   0  0  0  0  0  0  0  0  0  0  0  0
    1.0607   -4.2426    0.0000 C   0  0  0  0  0  0  0  0  0  0  0  0
    2.1213   -5.3033    0.0000 N   0  0  0  0  0  0  0  0  0  0  0  0
    3.1820   -4.2426    0.0000 C   0  0  0  0  0  0  0  0  0  0  0  0
    4.2426   -3.1820    0.0000 C   0  0  0  0  0  0  0  0  0  0  0  0
    5.6915   -3.5702    0.0000 N   0  0  0  0  0  0  0  0  0  0  0  0
    3.1820   -0.0000    0.0000 N   0  0  0  0  0  0  0  0  0  0  0  0
    3.5702    1.4489    0.0000 C   0  0  0  0  0  0  0  0  0  0  0  0
    5.0191    1.0607    0.0000 C   0  0  0  0  0  0  0  0  0  0  0  0
    2.1213    1.8371    0.0000 C   0  0  0  0  0  0  0  0  0  0  0  0
    2.5095    3.2860    0.0000 C   0  0  0  0  0  0  0  0  0  0  0  0
    3.9584    2.8978    0.0000 C   0  0  0  0  0  0  0  0  0  0  0  0
    7.4246    2.1213    0.0000 H   0  0  0  0  0  0  0  0  0  0  0  0
    5.5915    2.3465    0.0000 H   0  0  0  0  0  0  0  0  0  0  0  0
    7.4246   -0.0000    0.0000 H   0  0  0  0  0  0  0  0  0  0  0  0
    5.0703    0.7624    0.0000 H   0  0  0  0  0  0  0  0  0  0  0  0
    6.3640   -1.0607    0.0000 H   0  0  0  0  0  0  0  0  0  0  0  0
    5.3033   -2.1213    0.0000 H   0  0  0  0  0  0  0  0  0  0  0  0
    2.2585   -0.9393    0.0000 H   0  0  0  0  0  0  0  0  0  0  0  0
    4.4678   -2.8938    0.0000 H   0  0  0  0  0  0  0  0  0  0  0  0
    1.9841   -0.9393    0.0000 H   0  0  0  0  0  0  0  0  0  0  0  0
   -0.1214   -3.0448    0.0000 H   0  0  0  0  0  0  0  0  0  0  0  0
    1.9841    1.1820    0.0000 H   0  0  0  0  0  0  0  0  0  0  0  0
    2.4310   -0.6100    0.0000 H   0  0  0  0  0  0  0  0  0  0  0  0
   -2.1213   -1.0607    0.0000 H   0  0  0  0  0  0  0  0  0  0  0  0
   -2.1213    1.0607    0.0000 H   0  0  0  0  0  0  0  0  0  0  0  0
    0.0000   -5.3033    0.0000 H   0  0  0  0  0  0  0  0  0  0  0  0
   -0.1214   -3.3192    0.0000 H   0  0  0  0  0  0  0  0  0  0  0  0
    2.1213   -6.8033    0.0000 H   0  0  0  0  0  0  0  0  0  0  0  0
    4.2426   -5.3033    0.0000 H   0  0  0  0  0  0  0  0  0  0  0  0
    4.5802   -1.7205    0.0000 H   0  0  0  0  0  0  0  0  0  0  0  0
    6.7522   -2.5095    0.0000 H   0  0  0  0  0  0  0  0  0  0  0  0
    1.7205    0.3376    0.0000 H   0  0  0  0  0  0  0  0  0  0  0  0
    6.5189    1.0346    0.0000 H   0  0  0  0  0  0  0  0  0  0  0  0
    5.4073    2.5095    0.0000 H   0  0  0  0  0  0  0  0  0  0  0  0
    5.3567   -0.4009    0.0000 H   0  0  0  0  0  0  0  0  0  0  0  0
    0.6724    2.2253    0.0000 H   0  0  0  0  0  0  0  0  0  0  0  0
    2.0952    0.3373    0.0000 H   0  0  0  0  0  0  0  0  0  0  0  0
    2.8978    4.7349    0.0000 H   0  0  0  0  0  0  0  0  0  0  0  0
    1.0607    3.6742    0.0000 H   0  0  0  0  0  0  0  0  0  0  0  0
    5.4582    2.8717    0.0000 H   0  0  0  0  0  0  0  0  0  0  0  0
    4.3467    4.3467    0.0000 H   0  0  0  0  0  0  0  0  0  0  0  0
  1  2  1  0
  2  3  1  0
  3  4  1  0
  4  5  1  0
  5  6  1  0
  6  7  1  0
  7  8  1  0
  7  9  1  0
  9 10  1  0
 10 11  1  0
  5 12  1  0
 12 13  1  0
 13 14  1  0
 14 15  1  0
 15 16  2  3
  3 17  1  0
 17 18  1  0
 18 19  1  0
 18 20  1  0
 20 21  1  0
 21 22  1  0
 14  5  1  0
 22 18  1  0
 11  7  1  0
  1 23  1  0
  1 24  1  0
  1 25  1  0
  2 26  1  0
  2 27  1  0
  3 28  1  0
  4 29  1  0
  4 30  1  0
  6 31  1  0
  6 32  1  0
  9 33  1  0
  9 34  1  0
 11 35  1  0
 11 36  1  0
 12 37  1  0
 12 38  1  0
 13 39  1  0
 14 40  1  0
 15 41  1  0
 16 42  1  0
 17 43  1  0
 19 44  1  0
 19 45  1  0
 19 46  1  0
 20 47  1  0
 20 48  1  0
 21 49  1  0
 21 50  1  0
 22 51  1  0
 22 52  1  0
M  END
$$$$
