
     RDKit          2D

 51 55  0  0  0  0  0  0  0  0999 V2000
   -5.8453   -1.3106    0.0000 C   0  0  0  0  0  0  0  0  0  0  0  0
   -4.6318   -0.4289    0.0000 C   0  0  0  0  0  0  0  0  0  0  0  0
   -3.2615   -1.0390    0.0000 C   0  0  0  0  0  0  0  0  0  0  0  0
   -2.0480   -0.1573    0.0000 C   0  0  0  0  0  0  0  0  0  0  0  0
   -3.1047   -2.5308    0.0000 C   0  0  0  0  0  0  0  0  0  0  0  0
   -2.9479   -4.0226    0.0000 C   0  0  0  0  0  0  0  0  0  0  0  0
   -1.4561   -3.8658    0.0000 C   0  0  0  0  0  0  0  0  0  0  0  0
   -1.6129   -2.3740    0.0000 C   0  0  0  0  0  0  0  0  0  0  0  0
   -0.1211   -2.2172    0.0000 C   0  0  0  0  0  0  0  0  0  0  0  0
    1.3706   -2.3740    0.0000 C   0  0  0  0  0  0  0  0  0  0  0  0
    1.0588   -3.8412    0.0000 C   0  0  0  0  0  0  0  0  0  0  0  0
    1.9807   -1.0037    0.0000 C   0  0  0  0  0  0  0  0  0  0  0  0
    0.8660    0.0000    0.0000 C   0  0  0  0  0  0  0  0  0  0  0  0
   -0.4330    0.7500    0.0000 C   0  0  0  0  0  0  0  0  0  0  0  0
   -1.9102    1.0105    0.0000 C   0  0  0  0  0  0  0  0  0  0  0  0
   -3.3874    1.2709    0.0000 C   0  0  0  0  0  0  0  0  0  0  0  0
   -4.6865    2.0209    0.0000 C   0  0  0  0  0  0  0  0  0  0  0  0
   -3.3874    2.7709    0.0000 C   0  0  0  0  0  0  0  0  0  0  0  0
   -3.3874    4.2709    0.0000 C   0  0  0  0  0  0  0  0  0  0  0  0
   -2.0884    3.5209    0.0000 C   0  0  0  0  0  0  0  0  0  0  0  0
   -0.4330   -0.7500    0.0000 C   0  0  0  0  0  0  0  0  0  0  0  0
   -7.2157   -0.7005    0.0000 H   0  0  0  0  0  0  0  0  0  0  0  0
   -5.6886   -2.8024    0.0000 H   0  0  0  0  0  0  0  0  0  0  0  0
   -4.9693    1.0326    0.0000 H   0  0  0  0  0  0  0  0  0  0  0  0
   -2.3207    0.5917    0.0000 H   0  0  0  0  0  0  0  0  0  0  0  0
   -0.5708   -0.4177    0.0000 H   0  0  0  0  0  0  0  0  0  0  0  0
   -4.5965   -2.6876    0.0000 H   0  0  0  0  0  0  0  0  0  0  0  0
   -4.4397   -4.1794    0.0000 H   0  0  0  0  0  0  0  0  0  0  0  0
   -2.7911   -5.5144    0.0000 H   0  0  0  0  0  0  0  0  0  0  0  0
   -1.2993   -5.3576    0.0000 H   0  0  0  0  0  0  0  0  0  0  0  0
    0.0436   -3.8920    0.0000 H   0  0  0  0  0  0  0  0  0  0  0  0
   -1.0998   -3.7835    0.0000 H   0  0  0  0  0  0  0  0  0  0  0  0
    0.0617   -3.7060    0.0000 H   0  0  0  0  0  0  0  0  0  0  0  0
    2.7972   -2.8375    0.0000 H   0  0  0  0  0  0  0  0  0  0  0  0
    0.7469   -5.3085    0.0000 H   0  0  0  0  0  0  0  0  0  0  0  0
    2.4770   -4.3296    0.0000 H   0  0  0  0  0  0  0  0  0  0  0  0
    2.5531   -3.9719    0.0000 H   0  0  0  0  0  0  0  0  0  0  0  0
    3.2798   -1.7537    0.0000 H   0  0  0  0  0  0  0  0  0  0  0  0
    2.8624    0.2098    0.0000 H   0  0  0  0  0  0  0  0  0  0  0  0
    1.7477    1.2135    0.0000 H   0  0  0  0  0  0  0  0  0  0  0  0
    0.0800    2.1595    0.0000 H   0  0  0  0  0  0  0  0  0  0  0  0
   -1.4716    2.4449    0.0000 H   0  0  0  0  0  0  0  0  0  0  0  0
   -1.9887   -0.4875    0.0000 H   0  0  0  0  0  0  0  0  0  0  0  0
   -4.2263    0.0274    0.0000 H   0  0  0  0  0  0  0  0  0  0  0  0
   -5.7835    0.9980    0.0000 H   0  0  0  0  0  0  0  0  0  0  0  0
   -5.6507    3.1700    0.0000 H   0  0  0  0  0  0  0  0  0  0  0  0
   -4.8646    4.5314    0.0000 H   0  0  0  0  0  0  0  0  0  0  0  0
   -2.8744    5.6805    0.0000 H   0  0  0  0  0  0  0  0  0  0  0  0
   -1.1242    4.6700    0.0000 H   0  0  0  0  0  0  0  0  0  0  0  0
   -0.9913    2.4980    0.0000 H   0  0  0  0  0  0  0  0  0  0  0  0
   -1.7695   -1.4311    0.0000 H   0  0  0  0  0  0  0  0  0  0  0  0
  1  2  2  3
  2  3  1  0
  3  4  2  3
  3  5  1  0
  5  6  1  0
  6  7  1  0
  7  8  1  0
  8  9  1  0
  9 10  1  0
 10 11  1  0
 10 12  1  0
 12 13  1  0
 13 14  1  0
 14 15  1  0
 15 16  1  0
 16 17  1  0
 17 18  1  0
 18 19  1  0
 19 20  1  0
 14 21  1  0
  8  5  1  0
 21  9  1  0
 21 13  1  0
 18 16  1  0
 20 18  1  0
  1 22  1  0
  1 23  1  0
  2 24  1  0
  4 25  1  0
  4 26  1  0
  5 27  1  0
  6 28  1  0
  6 29  1  0
  7 30  1  0
  7 31  1  0
  8 32  1  0
  9 33  1  0
 10 34  1  0
 11 35  1  0
 11 36  1  0
 11 37  1  0
 12 38  1  0
 12 39  1  0
 13 40  1  0
 14 41  1  0
 15 42  1  0
 15 43  1  0
 16 44  1  0
 17 45  1  0
 17 46  1  0
 19 47  1  0
 19 48  1  0
 20 49  1  0
 20 50  1  0
 21 51  1  0
M  END
$$$$
