
     RDKit          2D

109118  0  0  0  0  0  0  0  0999 V2000
   -0.6340    5.1962    0.0000 C   0  0  0  0  0  0  0  0  0  0  0  0
   -1.3840    3.8971    0.0000 C   0  0  0  0  0  0  0  0  0  0  0  0
   -2.8840    3.8971    0.0000 C   0  0  0  0  0  0  0  0  0  0  0  0
   -0.6340    2.5981    0.0000 C   0  0  0  0  0  0  0  0  0  0  0  0
    0.1160    1.2990    0.0000 C   0  0  0  0  0  0  0  0  0  0  0  0
    0.8660    0.0000    0.0000 C   0  0  0  0  0  0  0  0  0  0  0  0
    2.1651    0.7500    0.0000 C   0  0  0  0  0  0  0  0  0  0  0  0
    2.1651    2.2500    0.0000 C   0  0  0  0  0  0  0  0  0  0  0  0
    0.8660    3.0000    0.0000 C   0  0  0  0  0  0  0  0  0  0  0  0
   -0.4330    2.2500    0.0000 C   0  0  0  0  0  0  0  0  0  0  0  0
   -0.4330    0.7500    0.0000 C   0  0  0  0  0  0  0  0  0  0  0  0
   -0.4330   -0.7500    0.0000 C   0  0  0  0  0  0  0  0  0  0  0  0
   -1.9330   -0.7500    0.0000 C   0  0  0  0  0  0  0  0  0  0  0  0
   -2.6830   -2.0490    0.0000 C   0  0  0  0  0  0  0  0  0  0  0  0
   -3.8321   -3.0132    0.0000 C   0  0  0  0  0  0  0  0  0  0  0  0
   -1.9330   -3.3481    0.0000 C   0  0  0  0  0  0  0  0  0  0  0  0
   -0.4330   -3.3481    0.0000 C   0  0  0  0  0  0  0  0  0  0  0  0
    0.9765   -3.8611    0.0000 C   0  0  0  0  0  0  0  0  0  0  0  0
    2.3861   -4.3741    0.0000 C   0  0  0  0  0  0  0  0  0  0  0  0
    1.8730   -5.7837    0.0000 O   0  0  0  0  0  0  0  0  0  0  0  0
    3.7956   -4.8872    0.0000 C   0  0  0  0  0  0  0  0  0  0  0  0
    4.5456   -3.5881    0.0000 C   0  0  0  0  0  0  0  0  0  0  0  0
    5.6947   -2.6239    0.0000 C   0  0  0  0  0  0  0  0  0  0  0  0
    5.9551   -4.1012    0.0000 C   0  0  0  0  0  0  0  0  0  0  0  0
    7.4551   -4.1012    0.0000 C   0  0  0  0  0  0  0  0  0  0  0  0
    8.8647   -4.6142    0.0000 C   0  0  0  0  0  0  0  0  0  0  0  0
    9.6147   -3.3152    0.0000 C   0  0  0  0  0  0  0  0  0  0  0  0
   10.3647   -2.0161    0.0000 C   0  0  0  0  0  0  0  0  0  0  0  0
   11.5137   -1.0519    0.0000 C   0  0  0  0  0  0  0  0  0  0  0  0
   10.7637    0.2471    0.0000 C   0  0  0  0  0  0  0  0  0  0  0  0
   11.7742   -2.5291    0.0000 C   0  0  0  0  0  0  0  0  0  0  0  0
   13.2742   -2.5291    0.0000 C   0  0  0  0  0  0  0  0  0  0  0  0
   14.6838   -3.0422    0.0000 C   0  0  0  0  0  0  0  0  0  0  0  0
   13.5347   -4.0064    0.0000 C   0  0  0  0  0  0  0  0  0  0  0  0
    7.7156   -5.5784    0.0000 C   0  0  0  0  0  0  0  0  0  0  0  0
    8.4656   -6.8774    0.0000 C   0  0  0  0  0  0  0  0  0  0  0  0
    9.2156   -8.1764    0.0000 C   0  0  0  0  0  0  0  0  0  0  0  0
    4.9447   -5.8513    0.0000 C   0  0  0  0  0  0  0  0  0  0  0  0
    3.5351   -6.3644    0.0000 C   0  0  0  0  0  0  0  0  0  0  0  0
    3.8980   -7.8198    0.0000 C   0  0  0  0  0  0  0  0  0  0  0  0
    2.6259   -8.6147    0.0000 C   0  0  0  0  0  0  0  0  0  0  0  0
    1.4769   -7.6505    0.0000 C   0  0  0  0  0  0  0  0  0  0  0  0
    0.5534   -6.4685    0.0000 C   0  0  0  0  0  0  0  0  0  0  0  0
    2.0388   -6.2597    0.0000 C   0  0  0  0  0  0  0  0  0  0  0  0
    0.3170   -2.0490    0.0000 O   0  0  0  0  0  0  0  0  0  0  0  0
   -1.3840    6.4952    0.0000 H   0  0  0  0  0  0  0  0  0  0  0  0
    0.8660    5.1962    0.0000 H   0  0  0  0  0  0  0  0  0  0  0  0
   -4.3840    3.8971    0.0000 H   0  0  0  0  0  0  0  0  0  0  0  0
   -2.8840    5.3971    0.0000 H   0  0  0  0  0  0  0  0  0  0  0  0
   -2.8840    2.3971    0.0000 H   0  0  0  0  0  0  0  0  0  0  0  0
    0.4450    3.6401    0.0000 H   0  0  0  0  0  0  0  0  0  0  0  0
   -2.0147    2.0120    0.0000 H   0  0  0  0  0  0  0  0  0  0  0  0
   -1.3831    1.2469    0.0000 H   0  0  0  0  0  0  0  0  0  0  0  0
    1.1950    2.3411    0.0000 H   0  0  0  0  0  0  0  0  0  0  0  0
    3.6423    1.0105    0.0000 H   0  0  0  0  0  0  0  0  0  0  0  0
    2.6781   -0.6595    0.0000 H   0  0  0  0  0  0  0  0  0  0  0  0
    2.6781    3.6595    0.0000 H   0  0  0  0  0  0  0  0  0  0  0  0
    3.6423    1.9895    0.0000 H   0  0  0  0  0  0  0  0  0  0  0  0
   -0.0982    4.1491    0.0000 H   0  0  0  0  0  0  0  0  0  0  0  0
    1.8302    4.1491    0.0000 H   0  0  0  0  0  0  0  0  0  0  0  0
   -1.8675    1.8114    0.0000 H   0  0  0  0  0  0  0  0  0  0  0  0
   -0.5897    3.7418    0.0000 H   0  0  0  0  0  0  0  0  0  0  0  0
   -1.9330    0.7500    0.0000 H   0  0  0  0  0  0  0  0  0  0  0  0
   -3.3426   -0.2370    0.0000 H   0  0  0  0  0  0  0  0  0  0  0  0
   -2.0377    0.7463    0.0000 H   0  0  0  0  0  0  0  0  0  0  0  0
   -3.8321   -1.0849    0.0000 H   0  0  0  0  0  0  0  0  0  0  0  0
   -4.9811   -3.9774    0.0000 H   0  0  0  0  0  0  0  0  0  0  0  0
   -4.7963   -1.8642    0.0000 H   0  0  0  0  0  0  0  0  0  0  0  0
   -3.0152   -4.2712    0.0000 H   0  0  0  0  0  0  0  0  0  0  0  0
   -1.6725   -4.8253    0.0000 H   0  0  0  0  0  0  0  0  0  0  0  0
   -3.2695   -4.0291    0.0000 H   0  0  0  0  0  0  0  0  0  0  0  0
   -0.8716   -4.7825    0.0000 H   0  0  0  0  0  0  0  0  0  0  0  0
    0.2955   -5.1976    0.0000 H   0  0  0  0  0  0  0  0  0  0  0  0
    1.4896   -2.4516    0.0000 H   0  0  0  0  0  0  0  0  0  0  0  0
    2.7235   -2.9126    0.0000 H   0  0  0  0  0  0  0  0  0  0  0  0
    2.8372   -6.9327    0.0000 H   0  0  0  0  0  0  0  0  0  0  0  0
    3.5226   -2.4911    0.0000 H   0  0  0  0  0  0  0  0  0  0  0  0
    4.9447   -1.3249    0.0000 H   0  0  0  0  0  0  0  0  0  0  0  0
    7.0312   -1.9429    0.0000 H   0  0  0  0  0  0  0  0  0  0  0  0
    5.6947   -5.5784    0.0000 H   0  0  0  0  0  0  0  0  0  0  0  0
    7.7156   -2.6239    0.0000 H   0  0  0  0  0  0  0  0  0  0  0  0
   10.1227   -5.4311    0.0000 H   0  0  0  0  0  0  0  0  0  0  0  0
   10.8126   -4.2179    0.0000 H   0  0  0  0  0  0  0  0  0  0  0  0
    8.4168   -2.4124    0.0000 H   0  0  0  0  0  0  0  0  0  0  0  0
    9.1067   -1.1992    0.0000 H   0  0  0  0  0  0  0  0  0  0  0  0
   12.8502   -0.3709    0.0000 H   0  0  0  0  0  0  0  0  0  0  0  0
   10.0137    1.5461    0.0000 H   0  0  0  0  0  0  0  0  0  0  0  0
   12.0628    0.9971    0.0000 H   0  0  0  0  0  0  0  0  0  0  0  0
    9.3830   -0.3390    0.0000 H   0  0  0  0  0  0  0  0  0  0  0  0
   11.5137   -4.0064    0.0000 H   0  0  0  0  0  0  0  0  0  0  0  0
   13.7128   -1.0947    0.0000 H   0  0  0  0  0  0  0  0  0  0  0  0
   15.4338   -1.7431    0.0000 H   0  0  0  0  0  0  0  0  0  0  0  0
   15.8328   -4.0064    0.0000 H   0  0  0  0  0  0  0  0  0  0  0  0
   14.2847   -5.3054    0.0000 H   0  0  0  0  0  0  0  0  0  0  0  0
   12.1982   -4.6874    0.0000 H   0  0  0  0  0  0  0  0  0  0  0  0
    6.3791   -6.2594    0.0000 H   0  0  0  0  0  0  0  0  0  0  0  0
    7.1666   -7.6274    0.0000 H   0  0  0  0  0  0  0  0  0  0  0  0
    9.8464   -6.2913    0.0000 H   0  0  0  0  0  0  0  0  0  0  0  0
    9.9656   -9.4755    0.0000 H   0  0  0  0  0  0  0  0  0  0  0  0
    7.9166   -8.9264    0.0000 H   0  0  0  0  0  0  0  0  0  0  0  0
   10.5147   -7.4264    0.0000 H   0  0  0  0  0  0  0  0  0  0  0  0
    6.2027   -5.0344    0.0000 H   0  0  0  0  0  0  0  0  0  0  0  0
    5.6947   -7.1504    0.0000 H   0  0  0  0  0  0  0  0  0  0  0  0
    5.2888   -8.3817    0.0000 H   0  0  0  0  0  0  0  0  0  0  0  0
    2.5213  -10.1110    0.0000 H   0  0  0  0  0  0  0  0  0  0  0  0
    0.3979   -8.6925    0.0000 H   0  0  0  0  0  0  0  0  0  0  0  0
   -0.7710   -7.1727    0.0000 H   0  0  0  0  0  0  0  0  0  0  0  0
   -0.2416   -5.1965    0.0000 H   0  0  0  0  0  0  0  0  0  0  0  0
    1.6253   -4.8179    0.0000 H   0  0  0  0  0  0  0  0  0  0  0  0
  1  2  2  3
  2  3  1  0
  2  4  1  0
  4  5  1  0
  6  5  1  6
  6  7  1  0
  7  8  1  0
  8  9  1  0
  9 10  1  0
 10 11  1  0
 11 12  1  0
 12 13  1  0
 13 14  1  0
 14 15  1  0
 14 16  1  0
 16 17  1  0
 17 18  1  0
 18 19  1  0
 19 20  1  0
 19 21  1  0
 21 22  1  0
 22 23  1  0
 23 24  1  0
 24 25  1  0
 25 26  1  0
 26 27  1  0
 27 28  1  0
 28 29  1  0
 29 30  1  0
 29 31  1  0
 31 32  1  0
 32 33  1  0
 33 34  1  0
 26 35  1  0
 35 36  1  0
 36 37  1  0
 21 38  1  1
 39 38  1  6
 39 40  1  0
 40 41  2  0
 41 42  1  0
 42 43  1  0
 43 44  1  0
 17 45  1  0
 11  6  1  0
 12 45  1  6
 12  6  1  0
 39 21  1  0
 44 42  1  0
 24 22  1  0
 35 25  1  0
 44 39  1  0
 31 28  1  0
 34 32  1  0
  1 46  1  0
  1 47  1  0
  3 48  1  0
  3 49  1  0
  3 50  1  0
  4 51  1  0
  4 52  1  0
  5 53  1  0
  5 54  1  0
  7 55  1  0
  7 56  1  0
  8 57  1  0
  8 58  1  0
  9 59  1  0
  9 60  1  0
 10 61  1  0
 10 62  1  0
 11 63  1  6
 13 64  1  0
 13 65  1  0
 14 66  1  1
 15 67  1  0
 15 68  1  0
 15 69  1  0
 16 70  1  0
 16 71  1  0
 17 72  1  1
 18 73  1  0
 18 74  1  0
 19 75  1  1
 20 76  1  0
 22 77  1  6
 23 78  1  0
 23 79  1  0
 24 80  1  6
 25 81  1  1
 26 82  1  6
 27 83  1  0
 27 84  1  0
 28 85  1  1
 29 86  1  6
 30 87  1  0
 30 88  1  0
 30 89  1  0
 31 90  1  6
 32 91  1  0
 33 92  1  0
 33 93  1  0
 34 94  1  0
 34 95  1  0
 35 96  1  6
 36 97  1  0
 36 98  1  0
 37 99  1  0
 37100  1  0
 37101  1  0
 38102  1  0
 38103  1  0
 40104  1  0
 41105  1  0
 42106  1  6
 43107  1  0
 43108  1  0
 44109  1  6
M  END
$$$$
