
     RDKit          2D

 68 74  0  0  0  0  0  0  0  0999 V2000
   -3.2623   -3.9423    0.0000 C   0  0  0  0  0  0  0  0  0  0  0  0
   -3.9131   -2.5908    0.0000 C   0  0  0  0  0  0  0  0  0  0  0  0
   -5.4089   -2.4787    0.0000 C   0  0  0  0  0  0  0  0  0  0  0  0
   -6.0598   -1.1273    0.0000 C   0  0  0  0  0  0  0  0  0  0  0  0
   -7.2777   -2.0029    0.0000 I   0  0  0  0  0  0  0  0  0  0  0  0
   -5.2148    0.1121    0.0000 C   0  0  0  0  0  0  0  0  0  0  0  0
   -3.7190    0.0000    0.0000 C   0  0  0  0  0  0  0  0  0  0  0  0
   -3.0682    1.3515    0.0000 C   0  0  0  0  0  0  0  0  0  0  0  0
   -1.6058    1.6852    0.0000 C   0  0  0  0  0  0  0  0  0  0  0  0
   -0.4330    0.7500    0.0000 C   0  0  0  0  0  0  0  0  0  0  0  0
    0.4120    1.9894    0.0000 C   0  0  0  0  0  0  0  0  0  0  0  0
    1.2569    3.2287    0.0000 C   0  0  0  0  0  0  0  0  0  0  0  0
    2.7528    3.1166    0.0000 C   0  0  0  0  0  0  0  0  0  0  0  0
    3.5977    4.3560    0.0000 C   0  0  0  0  0  0  0  0  0  0  0  0
    4.4427    5.5953    0.0000 C   0  0  0  0  0  0  0  0  0  0  0  0
    3.7919    6.9468    0.0000 C   0  0  0  0  0  0  0  0  0  0  0  0
    5.2877    6.8347    0.0000 C   0  0  0  0  0  0  0  0  0  0  0  0
    5.7831    8.2505    0.0000 C   0  0  0  0  0  0  0  0  0  0  0  0
    7.1346    8.9013    0.0000 C   0  0  0  0  0  0  0  0  0  0  0  0
    8.5504    8.4059    0.0000 C   0  0  0  0  0  0  0  0  0  0  0  0
    9.2012    7.0545    0.0000 C   0  0  0  0  0  0  0  0  0  0  0  0
    8.7058    5.6386    0.0000 C   0  0  0  0  0  0  0  0  0  0  0  0
    7.3543    4.9878    0.0000 C   0  0  0  0  0  0  0  0  0  0  0  0
    6.2174    4.0094    0.0000 C   0  0  0  0  0  0  0  0  0  0  0  0
    5.9385    5.4832    0.0000 C   0  0  0  0  0  0  0  0  0  0  0  0
    0.8660    0.0000    0.0000 C   0  0  0  0  0  0  0  0  0  0  0  0
   -0.4330   -0.7500    0.0000 C   0  0  0  0  0  0  0  0  0  0  0  0
    0.4120   -1.9894    0.0000 O   0  0  0  0  0  0  0  0  0  0  0  0
   -1.6058   -1.6852    0.0000 N   0  0  0  0  0  0  0  0  0  0  0  0
   -3.0682   -1.3515    0.0000 C   0  0  0  0  0  0  0  0  0  0  0  0
   -4.1073   -5.1816    0.0000 H   0  0  0  0  0  0  0  0  0  0  0  0
   -1.7665   -4.0544    0.0000 H   0  0  0  0  0  0  0  0  0  0  0  0
   -5.2596   -3.9713    0.0000 H   0  0  0  0  0  0  0  0  0  0  0  0
   -6.8529   -2.8850    0.0000 H   0  0  0  0  0  0  0  0  0  0  0  0
   -7.1336   -0.0799    0.0000 H   0  0  0  0  0  0  0  0  0  0  0  0
   -6.5820    0.7290    0.0000 H   0  0  0  0  0  0  0  0  0  0  0  0
   -5.0607    1.3173    0.0000 H   0  0  0  0  0  0  0  0  0  0  0  0
   -4.6542   -1.1727    0.0000 H   0  0  0  0  0  0  0  0  0  0  0  0
   -4.2109    1.7642    0.0000 H   0  0  0  0  0  0  0  0  0  0  0  0
   -3.2510    2.8403    0.0000 H   0  0  0  0  0  0  0  0  0  0  0  0
   -2.0870    3.1059    0.0000 H   0  0  0  0  0  0  0  0  0  0  0  0
   -1.0477    2.2545    0.0000 H   0  0  0  0  0  0  0  0  0  0  0  0
   -0.1870    2.5154    0.0000 H   0  0  0  0  0  0  0  0  0  0  0  0
    1.7451    1.3018    0.0000 H   0  0  0  0  0  0  0  0  0  0  0  0
    0.6061    4.5802    0.0000 H   0  0  0  0  0  0  0  0  0  0  0  0
    3.4036    1.7652    0.0000 H   0  0  0  0  0  0  0  0  0  0  0  0
    4.7248    3.3662    0.0000 H   0  0  0  0  0  0  0  0  0  0  0  0
    2.3584    5.2010    0.0000 H   0  0  0  0  0  0  0  0  0  0  0  0
    2.3480    6.5405    0.0000 H   0  0  0  0  0  0  0  0  0  0  0  0
    3.4617    8.4100    0.0000 H   0  0  0  0  0  0  0  0  0  0  0  0
    5.3267    9.6794    0.0000 H   0  0  0  0  0  0  0  0  0  0  0  0
    4.3121    8.5441    0.0000 H   0  0  0  0  0  0  0  0  0  0  0  0
    7.8222   10.2345    0.0000 H   0  0  0  0  0  0  0  0  0  0  0  0
    6.3020   10.1491    0.0000 H   0  0  0  0  0  0  0  0  0  0  0  0
    9.9793    8.8624    0.0000 H   0  0  0  0  0  0  0  0  0  0  0  0
    8.8440    9.8769    0.0000 H   0  0  0  0  0  0  0  0  0  0  0  0
   10.5343    6.3669    0.0000 H   0  0  0  0  0  0  0  0  0  0  0  0
   10.4490    7.8870    0.0000 H   0  0  0  0  0  0  0  0  0  0  0  0
    8.9847    4.1648    0.0000 H   0  0  0  0  0  0  0  0  0  0  0  0
   10.1768    5.3451    0.0000 H   0  0  0  0  0  0  0  0  0  0  0  0
    8.1760    3.7329    0.0000 H   0  0  0  0  0  0  0  0  0  0  0  0
    6.9835    2.7198    0.0000 H   0  0  0  0  0  0  0  0  0  0  0  0
    4.8895    3.3118    0.0000 H   0  0  0  0  0  0  0  0  0  0  0  0
    1.9631    1.0230    0.0000 H   0  0  0  0  0  0  0  0  0  0  0  0
    1.8302   -1.1491    0.0000 H   0  0  0  0  0  0  0  0  0  0  0  0
   -0.2389   -3.3408    0.0000 H   0  0  0  0  0  0  0  0  0  0  0  0
   -1.2720   -3.1476    0.0000 H   0  0  0  0  0  0  0  0  0  0  0  0
   -2.5201   -2.7478    0.0000 H   0  0  0  0  0  0  0  0  0  0  0  0
  1  2  2  3
  2  3  1  0
  3  4  1  0
  4  5  1  0
  4  6  1  0
  6  7  1  0
  7  8  1  0
  8  9  1  0
  9 10  1  0
 10 11  1  1
 11 12  1  0
 12 13  2  3
 13 14  1  0
 15 14  1  6
 15 16  1  0
 17 16  1  1
 17 18  1  0
 18 19  1  0
 19 20  1  0
 20 21  1  0
 21 22  1  0
 22 23  1  0
 23 24  1  0
 25 24  1  6
 10 26  1  0
 26 27  1  0
 27 28  1  1
 27 29  1  0
 29 30  1  0
 30  2  1  0
 30  7  1  0
 27 10  1  0
 17 15  1  0
 25 23  1  0
 25 15  1  0
 25 17  1  0
  1 31  1  0
  1 32  1  0
  3 33  1  0
  3 34  1  0
  4 35  1  6
  6 36  1  0
  6 37  1  0
  7 38  1  1
  8 39  1  0
  8 40  1  0
  9 41  1  0
  9 42  1  0
 11 43  1  0
 11 44  1  0
 12 45  1  0
 13 46  1  0
 14 47  1  0
 14 48  1  0
 16 49  1  0
 16 50  1  0
 18 51  1  0
 18 52  1  0
 19 53  1  0
 19 54  1  0
 20 55  1  0
 20 56  1  0
 21 57  1  0
 21 58  1  0
 22 59  1  0
 22 60  1  0
 23 61  1  1
 24 62  1  0
 24 63  1  0
 26 64  1  0
 26 65  1  0
 28 66  1  0
 29 67  1  0
 30 68  1  1
M  END
$$$$
