
     RDKit          2D

 34 34  0  0  0  0  0  0  0  0999 V2000
    4.0607   -4.5000    0.0000 C   0  0  0  0  0  0  0  0  0  0  0  0
    4.0607   -3.0000    0.0000 C   0  0  0  0  0  0  0  0  0  0  0  0
    4.0607   -1.5000    0.0000 C   0  0  0  0  0  0  0  0  0  0  0  0
    4.0607    0.0000    0.0000 C   0  0  0  0  0  0  0  0  0  0  0  0
    4.0607    1.5000    0.0000 C   0  0  0  0  0  0  0  0  0  0  0  0
    4.0607    3.0000    0.0000 C   0  0  0  0  0  0  0  0  0  0  0  0
    2.5607    0.0000    0.0000 C   0  0  0  0  0  0  0  0  0  0  0  0
    1.0607    0.0000    0.0000 N   0  0  0  0  0  0  0  0  0  0  0  0
   -0.0000   -1.0607    0.0000 C   0  0  0  0  0  0  0  0  0  0  0  0
    1.0607   -2.1213    0.0000 N   0  0  0  0  0  0  0  0  0  0  0  0
   -1.0607    0.0000    0.0000 N   0  0  0  0  0  0  0  0  0  0  0  0
    0.0000    1.0607    0.0000 C   0  0  0  0  0  0  0  0  0  0  0  0
   -1.0607    2.1213    0.0000 O   0  0  0  0  0  0  0  0  0  0  0  0
    4.0607   -6.0000    0.0000 H   0  0  0  0  0  0  0  0  0  0  0  0
    2.5607   -4.5000    0.0000 H   0  0  0  0  0  0  0  0  0  0  0  0
    5.5607   -4.5000    0.0000 H   0  0  0  0  0  0  0  0  0  0  0  0
    2.5607   -3.0000    0.0000 H   0  0  0  0  0  0  0  0  0  0  0  0
    5.5607   -3.0000    0.0000 H   0  0  0  0  0  0  0  0  0  0  0  0
    4.8519   -1.5972    0.0000 H   0  0  0  0  0  0  0  0  0  0  0  0
    4.8519   -1.4028    0.0000 H   0  0  0  0  0  0  0  0  0  0  0  0
    5.5607    0.0000    0.0000 H   0  0  0  0  0  0  0  0  0  0  0  0
    5.5607    1.5000    0.0000 H   0  0  0  0  0  0  0  0  0  0  0  0
    2.5718    1.6828    0.0000 H   0  0  0  0  0  0  0  0  0  0  0  0
    4.0607    4.5000    0.0000 H   0  0  0  0  0  0  0  0  0  0  0  0
    5.5607    3.0000    0.0000 H   0  0  0  0  0  0  0  0  0  0  0  0
    2.5607    3.0000    0.0000 H   0  0  0  0  0  0  0  0  0  0  0  0
    2.3778    1.4888    0.0000 H   0  0  0  0  0  0  0  0  0  0  0  0
    2.7435   -1.4888    0.0000 H   0  0  0  0  0  0  0  0  0  0  0  0
   -1.0607   -2.1213    0.0000 H   0  0  0  0  0  0  0  0  0  0  0  0
    0.6724   -3.5702    0.0000 H   0  0  0  0  0  0  0  0  0  0  0  0
    2.5461   -1.9126    0.0000 H   0  0  0  0  0  0  0  0  0  0  0  0
   -2.5607    0.0000    0.0000 H   0  0  0  0  0  0  0  0  0  0  0  0
    1.0607    2.1213    0.0000 H   0  0  0  0  0  0  0  0  0  0  0  0
   -0.6724    3.5702    0.0000 H   0  0  0  0  0  0  0  0  0  0  0  0
  1  2  1  0
  2  3  1  0
  3  4  1  0
  4  5  1  0
  5  6  1  0
  4  7  1  0
  7  8  1  0
  8  9  1  0
  9 10  1  0
  9 11  1  0
 11 12  1  0
 12 13  1  0
 12  8  1  0
  1 14  1  0
  1 15  1  0
  1 16  1  0
  2 17  1  0
  2 18  1  0
  3 19  1  0
  3 20  1  0
  4 21  1  0
  5 22  1  0
  5 23  1  0
  6 24  1  0
  6 25  1  0
  6 26  1  0
  7 27  1  0
  7 28  1  0
  9 29  1  0
 10 30  1  0
 10 31  1  0
 11 32  1  0
 12 33  1  0
 13 34  1  0
M  END
$$$$
