
     RDKit          2D

 43 44  0  0  0  0  0  0  0  0999 V2000
    1.8360    4.3437    0.0000 C   0  0  0  0  0  0  0  0  0  0  0  0
    3.2455    4.8567    0.0000 C   0  0  0  0  0  0  0  0  0  0  0  0
    4.6551    5.3698    0.0000 C   0  0  0  0  0  0  0  0  0  0  0  0
    6.0646    5.8828    0.0000 C   0  0  0  0  0  0  0  0  0  0  0  0
    7.4742    6.3958    0.0000 O   0  0  0  0  0  0  0  0  0  0  0  0
    7.7346    7.8730    0.0000 C   0  0  0  0  0  0  0  0  0  0  0  0
    7.9951    9.3503    0.0000 N   0  0  0  0  0  0  0  0  0  0  0  0
    6.2574    8.1335    0.0000 Al  0  0  0  0  0  3  0  0  0  0  0  0
    5.7444    9.5431    0.0000 O   0  0  0  0  0  0  0  0  0  0  0  0
    5.2932    6.9844    0.0000 O   0  0  0  0  0  0  0  0  0  0  0  0
    3.7586    3.4472    0.0000 N   0  0  0  0  0  0  0  0  0  0  0  0
    2.7944    2.2981    0.0000 C   0  0  0  0  0  0  0  0  0  0  0  0
    1.8302    1.1491    0.0000 C   0  0  0  0  0  0  0  0  0  0  0  0
    0.8660   -0.0000    0.0000 C   0  0  0  0  0  0  0  0  0  0  0  0
    1.8302   -1.1491    0.0000 C   0  0  0  0  0  0  0  0  0  0  0  0
   -0.4330    0.7500    0.0000 C   0  0  0  0  0  0  0  0  0  0  0  0
   -1.7321    0.0000    0.0000 C   0  0  0  0  0  0  0  0  0  0  0  0
   -0.4330   -0.7500    0.0000 C   0  0  0  0  0  0  0  0  0  0  0  0
    0.4265    3.8307    0.0000 H   0  0  0  0  0  0  0  0  0  0  0  0
    1.8097    2.8439    0.0000 H   0  0  0  0  0  0  0  0  0  0  0  0
    1.3230    5.7532    0.0000 H   0  0  0  0  0  0  0  0  0  0  0  0
    2.7325    6.2663    0.0000 H   0  0  0  0  0  0  0  0  0  0  0  0
    3.9741    6.7063    0.0000 H   0  0  0  0  0  0  0  0  0  0  0  0
    5.3361    4.0333    0.0000 H   0  0  0  0  0  0  0  0  0  0  0  0
    6.5776    4.4733    0.0000 H   0  0  0  0  0  0  0  0  0  0  0  0
    5.6188    6.5437    0.0000 H   0  0  0  0  0  0  0  0  0  0  0  0
    9.2118    7.6126    0.0000 H   0  0  0  0  0  0  0  0  0  0  0  0
    6.8460   10.3144    0.0000 H   0  0  0  0  0  0  0  0  0  0  0  0
    9.4046    9.8633    0.0000 H   0  0  0  0  0  0  0  0  0  0  0  0
    4.2672    9.8035    0.0000 H   0  0  0  0  0  0  0  0  0  0  0  0
    3.8588    7.4230    0.0000 H   0  0  0  0  0  0  0  0  0  0  0  0
    5.1930    3.0086    0.0000 H   0  0  0  0  0  0  0  0  0  0  0  0
    3.9435    1.3340    0.0000 H   0  0  0  0  0  0  0  0  0  0  0  0
    1.5364    3.1151    0.0000 H   0  0  0  0  0  0  0  0  0  0  0  0
    0.6811    2.1132    0.0000 H   0  0  0  0  0  0  0  0  0  0  0  0
    3.0882    0.3321    0.0000 H   0  0  0  0  0  0  0  0  0  0  0  0
    2.7944   -2.2981    0.0000 H   0  0  0  0  0  0  0  0  0  0  0  0
    0.6811   -2.1132    0.0000 H   0  0  0  0  0  0  0  0  0  0  0  0
    3.0882   -0.3321    0.0000 H   0  0  0  0  0  0  0  0  0  0  0  0
   -0.4330    2.2500    0.0000 H   0  0  0  0  0  0  0  0  0  0  0  0
   -2.6962    1.1491    0.0000 H   0  0  0  0  0  0  0  0  0  0  0  0
   -2.6962   -1.1491    0.0000 H   0  0  0  0  0  0  0  0  0  0  0  0
   -0.4330   -2.2500    0.0000 H   0  0  0  0  0  0  0  0  0  0  0  0
  1  2  1  0
  2  3  1  0
  3  4  1  0
  4  5  1  0
  5  6  1  0
  6  7  1  0
  6  8  1  0
  8  9  1  0
  8 10  1  0
  2 11  1  0
 11 12  1  0
 12 13  1  0
 14 13  1  1
 14 15  1  0
 14 16  1  0
 16 17  1  0
 17 18  1  0
 18 14  1  0
 18 16  1  0
  1 19  1  0
  1 20  1  0
  1 21  1  0
  2 22  1  1
  3 23  1  0
  3 24  1  0
  4 25  1  0
  4 26  1  0
  6 27  1  1
  7 28  1  0
  7 29  1  0
  9 30  1  0
 10 31  1  0
 11 32  1  0
 12 33  1  0
 12 34  1  0
 13 35  1  0
 13 36  1  0
 15 37  1  0
 15 38  1  0
 15 39  1  0
 16 40  1  1
 17 41  1  0
 17 42  1  0
 18 43  1  1
M  END
$$$$
