
     RDKit          2D

 75 81  0  0  0  0  0  0  0  0999 V2000
    0.6811    2.1132    0.0000 C   0  0  0  0  0  0  0  0  0  0  0  0
    1.8302    1.1491    0.0000 C   0  0  0  0  0  0  0  0  0  0  0  0
    2.9793    0.1849    0.0000 C   0  0  0  0  0  0  0  0  0  0  0  0
    0.8660    0.0000    0.0000 C   0  0  0  0  0  0  0  0  0  0  0  0
   -0.4330    0.7500    0.0000 C   0  0  0  0  0  0  0  0  0  0  0  0
   -0.4330   -0.7500    0.0000 C   0  0  0  0  0  0  0  0  0  0  0  0
   -0.4330   -2.2500    0.0000 C   0  0  0  0  0  0  0  0  0  0  0  0
   -1.9330   -2.2500    0.0000 C   0  0  0  0  0  0  0  0  0  0  0  0
   -3.4330   -2.2500    0.0000 C   0  0  0  0  0  0  0  0  0  0  0  0
   -4.9330   -2.2500    0.0000 O   0  0  0  0  0  0  0  0  0  0  0  0
   -3.4330   -3.7500    0.0000 O   0  0  0  0  0  0  0  0  0  0  0  0
   -4.7321   -4.5000    0.0000 C   0  0  0  0  0  0  0  0  0  0  0  0
   -3.9821   -5.7990    0.0000 C   0  0  0  0  0  0  0  0  0  0  0  0
   -3.9821   -5.7990    0.0000 C   0  0  0  0  0  0  0  0  0  0  0  0
   -3.2321   -7.0981    0.0000 C   0  0  0  0  0  0  0  0  0  0  0  0
   -5.2811   -6.5490    0.0000 C   0  0  0  0  0  0  0  0  0  0  0  0
   -6.7811   -6.5490    0.0000 C   0  0  0  0  0  0  0  0  0  0  0  0
   -7.0416   -8.0262    0.0000 C   0  0  0  0  0  0  0  0  0  0  0  0
   -8.4511   -8.5393    0.0000 C   0  0  0  0  0  0  0  0  0  0  0  0
   -8.7116  -10.0165    0.0000 C   0  0  0  0  0  0  0  0  0  0  0  0
  -10.1888   -9.7560    0.0000 C   0  0  0  0  0  0  0  0  0  0  0  0
   -8.9720  -11.4937    0.0000 C   0  0  0  0  0  0  0  0  0  0  0  0
   -7.8230  -12.4579    0.0000 N   0  0  0  0  0  0  0  0  0  0  0  0
   -6.0311   -5.2500    0.0000 C   0  0  0  0  0  0  0  0  0  0  0  0
   -1.9330   -0.7500    0.0000 C   0  0  0  0  0  0  0  0  0  0  0  0
   -3.2321    0.0000    0.0000 C   0  0  0  0  0  0  0  0  0  0  0  0
   -3.2321    1.5000    0.0000 C   0  0  0  0  0  0  0  0  0  0  0  0
   -4.7093    1.7605    0.0000 C   0  0  0  0  0  0  0  0  0  0  0  0
   -2.7190    2.9095    0.0000 C   0  0  0  0  0  0  0  0  0  0  0  0
   -2.2060    4.3191    0.0000 C   0  0  0  0  0  0  0  0  0  0  0  0
   -4.1286    3.4226    0.0000 C   0  0  0  0  0  0  0  0  0  0  0  0
   -1.9330    0.7500    0.0000 C   0  0  0  0  0  0  0  0  0  0  0  0
   -0.3418    3.2103    0.0000 H   0  0  0  0  0  0  0  0  0  0  0  0
    1.6453    3.2623    0.0000 H   0  0  0  0  0  0  0  0  0  0  0  0
   -0.5324    1.2316    0.0000 H   0  0  0  0  0  0  0  0  0  0  0  0
    2.7944    2.2981    0.0000 H   0  0  0  0  0  0  0  0  0  0  0  0
    4.1283   -0.7793    0.0000 H   0  0  0  0  0  0  0  0  0  0  0  0
    3.9435    1.3340    0.0000 H   0  0  0  0  0  0  0  0  0  0  0  0
    2.1623   -1.0731    0.0000 H   0  0  0  0  0  0  0  0  0  0  0  0
    1.6830   -1.2580    0.0000 H   0  0  0  0  0  0  0  0  0  0  0  0
   -0.4069    2.2498    0.0000 H   0  0  0  0  0  0  0  0  0  0  0  0
   -0.4330   -3.7500    0.0000 H   0  0  0  0  0  0  0  0  0  0  0  0
    1.0670   -2.2500    0.0000 H   0  0  0  0  0  0  0  0  0  0  0  0
   -1.9330   -3.7500    0.0000 H   0  0  0  0  0  0  0  0  0  0  0  0
   -3.7960   -0.7946    0.0000 H   0  0  0  0  0  0  0  0  0  0  0  0
   -5.6830   -3.5490    0.0000 H   0  0  0  0  0  0  0  0  0  0  0  0
   -3.5687   -7.2410    0.0000 H   0  0  0  0  0  0  0  0  0  0  0  0
   -2.6013   -5.2130    0.0000 H   0  0  0  0  0  0  0  0  0  0  0  0
   -5.0610   -6.8411    0.0000 H   0  0  0  0  0  0  0  0  0  0  0  0
   -2.7841   -4.8963    0.0000 H   0  0  0  0  0  0  0  0  0  0  0  0
   -2.4821   -8.3971    0.0000 H   0  0  0  0  0  0  0  0  0  0  0  0
   -1.9330   -6.3481    0.0000 H   0  0  0  0  0  0  0  0  0  0  0  0
   -4.4300   -8.0008    0.0000 H   0  0  0  0  0  0  0  0  0  0  0  0
   -5.0724   -8.0344    0.0000 H   0  0  0  0  0  0  0  0  0  0  0  0
   -8.1906   -6.0360    0.0000 H   0  0  0  0  0  0  0  0  0  0  0  0
   -5.8925   -8.9904    0.0000 H   0  0  0  0  0  0  0  0  0  0  0  0
   -9.4741   -7.4422    0.0000 H   0  0  0  0  0  0  0  0  0  0  0  0
   -7.2344  -10.2770    0.0000 H   0  0  0  0  0  0  0  0  0  0  0  0
  -11.6660   -9.4955    0.0000 H   0  0  0  0  0  0  0  0  0  0  0  0
  -10.6274  -11.1905    0.0000 H   0  0  0  0  0  0  0  0  0  0  0  0
  -10.1103   -8.2581    0.0000 H   0  0  0  0  0  0  0  0  0  0  0  0
  -10.3085  -12.1747    0.0000 H   0  0  0  0  0  0  0  0  0  0  0  0
   -8.0835  -13.9351    0.0000 H   0  0  0  0  0  0  0  0  0  0  0  0
   -7.0917   -4.1893    0.0000 H   0  0  0  0  0  0  0  0  0  0  0  0
   -4.5311   -0.7500    0.0000 H   0  0  0  0  0  0  0  0  0  0  0  0
   -6.1865    2.0209    0.0000 H   0  0  0  0  0  0  0  0  0  0  0  0
   -4.8140    3.2568    0.0000 H   0  0  0  0  0  0  0  0  0  0  0  0
   -4.9697    0.2833    0.0000 H   0  0  0  0  0  0  0  0  0  0  0  0
   -1.3095    2.3965    0.0000 H   0  0  0  0  0  0  0  0  0  0  0  0
   -1.6930    5.7286    0.0000 H   0  0  0  0  0  0  0  0  0  0  0  0
   -0.7444    3.9817    0.0000 H   0  0  0  0  0  0  0  0  0  0  0  0
   -3.5425    5.0001    0.0000 H   0  0  0  0  0  0  0  0  0  0  0  0
   -5.5381    3.9356    0.0000 H   0  0  0  0  0  0  0  0  0  0  0  0
   -3.7912    4.8841    0.0000 H   0  0  0  0  0  0  0  0  0  0  0  0
   -4.9674    2.1791    0.0000 H   0  0  0  0  0  0  0  0  0  0  0  0
  1  2  1  0
  2  3  1  0
  2  4  1  0
  4  5  1  0
  5  6  1  0
  6  7  1  6
  7  8  1  0
  8  9  1  0
  9 10  1  0
  9 11  1  0
 12 11  1  1
 12 13  1  0
 12 14  1  0
 14 15  1  0
 14 16  1  0
 16 17  1  0
 17 18  1  0
 18 19  2  3
 19 20  1  0
 20 21  1  0
 20 22  1  0
 22 23  2  3
 17 24  1  0
  8 25  1  0
 25 26  1  0
 26 27  1  0
 27 28  1  1
 27 29  1  0
 29 30  1  0
 29 31  1  0
 32 27  1  6
  6  4  1  0
 24 12  1  0
 32 25  1  0
 32  5  1  0
 25  6  1  6
 32 26  1  0
 24 16  1  0
  1 33  1  0
  1 34  1  0
  1 35  1  0
  2 36  1  0
  3 37  1  0
  3 38  1  0
  3 39  1  0
  4 40  1  1
  5 41  1  6
  7 42  1  0
  7 43  1  0
  8 44  1  1
  9 45  1  6
 10 46  1  0
 13 47  1  0
 13 48  1  0
 13 49  1  0
 14 50  1  6
 15 51  1  0
 15 52  1  0
 15 53  1  0
 16 54  1  6
 17 55  1  6
 18 56  1  0
 19 57  1  0
 20 58  1  1
 21 59  1  0
 21 60  1  0
 21 61  1  0
 22 62  1  0
 23 63  1  0
 24 64  1  6
 26 65  1  1
 28 66  1  0
 28 67  1  0
 28 68  1  0
 29 69  1  0
 30 70  1  0
 30 71  1  0
 30 72  1  0
 31 73  1  0
 31 74  1  0
 31 75  1  0
M  END
$$$$
