
     RDKit          2D

 30 32  0  0  0  0  0  0  0  0999 V2000
   -2.9879   -6.0146    0.0000 O   0  0  0  0  0  0  0  0  0  0  0  0
   -2.6761   -4.5474    0.0000 C   0  0  0  0  0  0  0  0  0  0  0  0
   -1.2495   -5.0109    0.0000 C   0  0  0  0  0  0  0  0  0  0  0  0
   -0.3678   -3.7974    0.0000 C   0  0  0  0  0  0  0  0  0  0  0  0
   -1.2495   -2.5838    0.0000 C   0  0  0  0  0  0  0  0  0  0  0  0
   -1.8596   -1.2135    0.0000 C   0  0  0  0  0  0  0  0  0  0  0  0
   -2.7413    0.0000    0.0000 C   0  0  0  0  0  0  0  0  0  0  0  0
   -1.8596    1.2135    0.0000 C   0  0  0  0  0  0  0  0  0  0  0  0
   -0.4330    0.7500    0.0000 C   0  0  0  0  0  0  0  0  0  0  0  0
    0.8660   -0.0000    0.0000 C   0  0  0  0  0  0  0  0  0  0  0  0
   -0.4330   -0.7500    0.0000 C   0  0  0  0  0  0  0  0  0  0  0  0
   -2.6761   -3.0474    0.0000 C   0  0  0  0  0  0  0  0  0  0  0  0
   -4.4145   -6.4781    0.0000 H   0  0  0  0  0  0  0  0  0  0  0  0
   -4.1679   -4.3906    0.0000 H   0  0  0  0  0  0  0  0  0  0  0  0
    0.0495   -5.7609    0.0000 H   0  0  0  0  0  0  0  0  0  0  0  0
   -1.8596   -6.3812    0.0000 H   0  0  0  0  0  0  0  0  0  0  0  0
    0.8609   -2.9370    0.0000 H   0  0  0  0  0  0  0  0  0  0  0  0
    0.7469   -4.8011    0.0000 H   0  0  0  0  0  0  0  0  0  0  0  0
   -0.4342   -2.2378    0.0000 H   0  0  0  0  0  0  0  0  0  0  0  0
   -2.5934   -1.5250    0.0000 H   0  0  0  0  0  0  0  0  0  0  0  0
   -3.8560   -1.0037    0.0000 H   0  0  0  0  0  0  0  0  0  0  0  0
   -3.8560    1.0037    0.0000 H   0  0  0  0  0  0  0  0  0  0  0  0
   -3.1586    1.9635    0.0000 H   0  0  0  0  0  0  0  0  0  0  0  0
   -1.2495    2.5838    0.0000 H   0  0  0  0  0  0  0  0  0  0  0  0
    0.1771    2.1203    0.0000 H   0  0  0  0  0  0  0  0  0  0  0  0
    1.8302    1.1491    0.0000 H   0  0  0  0  0  0  0  0  0  0  0  0
    1.8302   -1.1491    0.0000 H   0  0  0  0  0  0  0  0  0  0  0  0
    0.1123   -1.4479    0.0000 H   0  0  0  0  0  0  0  0  0  0  0  0
   -4.1679   -3.2042    0.0000 H   0  0  0  0  0  0  0  0  0  0  0  0
   -2.9356   -2.2936    0.0000 H   0  0  0  0  0  0  0  0  0  0  0  0
  1  2  1  0
  2  3  1  0
  3  4  1  0
  4  5  1  0
  5  6  1  0
  6  7  1  0
  7  8  1  0
  8  9  1  0
  9 10  1  0
 10 11  1  0
  5 12  1  0
 12  2  1  0
 11  6  1  0
 11  9  1  0
  1 13  1  0
  2 14  1  0
  3 15  1  0
  3 16  1  0
  4 17  1  0
  4 18  1  0
  5 19  1  0
  6 20  1  0
  7 21  1  0
  7 22  1  0
  8 23  1  0
  8 24  1  0
  9 25  1  0
 10 26  1  0
 10 27  1  0
 11 28  1  0
 12 29  1  0
 12 30  1  0
M  END
$$$$
