
     RDKit          2D

 29 30  0  0  0  0  0  0  0  0999 V2000
   10.1186    4.9639    0.0000 N   0  0  0  0  0  0  0  0  0  0  0  0
    9.1544    3.8148    0.0000 C   0  0  0  0  0  0  0  0  0  0  0  0
    8.1902    2.6658    0.0000 C   0  0  0  0  0  0  0  0  0  0  0  0
    7.2260    1.5167    0.0000 N   0  0  0  0  0  0  0  0  0  0  0  0
    5.7488    1.7772    0.0000 C   0  0  0  0  0  0  0  0  0  0  0  0
    4.2716    2.0377    0.0000 C   0  0  0  0  0  0  0  0  0  0  0  0
    2.7944    2.2981    0.0000 S   0  0  0  0  0  0  0  0  0  0  0  0
    1.8302    1.1491    0.0000 C   0  0  0  0  0  0  0  0  0  0  0  0
    0.8660    0.0000    0.0000 C   0  0  0  0  0  0  0  0  0  0  0  0
   -0.4330    0.7500    0.0000 C   0  0  0  0  0  0  0  0  0  0  0  0
   -1.7321    0.0000    0.0000 C   0  0  0  0  0  0  0  0  0  0  0  0
   -0.4330   -0.7500    0.0000 N   0  0  0  0  0  0  0  0  0  0  0  0
   11.5958    4.7034    0.0000 H   0  0  0  0  0  0  0  0  0  0  0  0
    9.6055    6.3735    0.0000 H   0  0  0  0  0  0  0  0  0  0  0  0
    8.0053    4.7790    0.0000 H   0  0  0  0  0  0  0  0  0  0  0  0
   10.3035    2.8507    0.0000 H   0  0  0  0  0  0  0  0  0  0  0  0
    7.0411    3.6300    0.0000 H   0  0  0  0  0  0  0  0  0  0  0  0
    9.3393    1.7016    0.0000 H   0  0  0  0  0  0  0  0  0  0  0  0
    7.7391    0.1072    0.0000 H   0  0  0  0  0  0  0  0  0  0  0  0
    5.4883    0.3000    0.0000 H   0  0  0  0  0  0  0  0  0  0  0  0
    6.0093    3.2544    0.0000 H   0  0  0  0  0  0  0  0  0  0  0  0
    4.0111    0.5604    0.0000 H   0  0  0  0  0  0  0  0  0  0  0  0
    4.5321    3.5149    0.0000 H   0  0  0  0  0  0  0  0  0  0  0  0
    2.9793    0.1849    0.0000 H   0  0  0  0  0  0  0  0  0  0  0  0
    0.6811    2.1132    0.0000 H   0  0  0  0  0  0  0  0  0  0  0  0
    1.8302   -1.1491    0.0000 H   0  0  0  0  0  0  0  0  0  0  0  0
   -0.4330    2.2500    0.0000 H   0  0  0  0  0  0  0  0  0  0  0  0
   -2.6962    1.1491    0.0000 H   0  0  0  0  0  0  0  0  0  0  0  0
   -2.6962   -1.1491    0.0000 H   0  0  0  0  0  0  0  0  0  0  0  0
  1  2  1  0
  2  3  1  0
  3  4  1  0
  4  5  1  0
  5  6  1  0
  6  7  1  0
  7  8  1  0
  8  9  1  0
  9 10  1  0
 10 11  1  0
 11 12  1  0
 12  9  1  0
 12 10  1  0
  1 13  1  0
  1 14  1  0
  2 15  1  0
  2 16  1  0
  3 17  1  0
  3 18  1  0
  4 19  1  0
  5 20  1  0
  5 21  1  0
  6 22  1  0
  6 23  1  0
  8 24  1  0
  8 25  1  0
  9 26  1  0
 10 27  1  0
 11 28  1  0
 11 29  1  0
M  END
$$$$
