
     RDKit          2D

 78 79  0  0  0  0  0  0  0  0999 V2000
   -9.6500   -9.0816    0.0000 C   0  0  0  0  0  0  0  0  0  0  0  0
   -8.2011   -8.6933    0.0000 C   0  0  0  0  0  0  0  0  0  0  0  0
   -6.7522   -8.3051    0.0000 C   0  0  0  0  0  0  0  0  0  0  0  0
   -5.3033   -7.9169    0.0000 C   0  0  0  0  0  0  0  0  0  0  0  0
   -3.8544   -7.5286    0.0000 C   0  0  0  0  0  0  0  0  0  0  0  0
   -2.4055   -7.1404    0.0000 C   0  0  0  0  0  0  0  0  0  0  0  0
   -0.9566   -6.7522    0.0000 C   0  0  0  0  0  0  0  0  0  0  0  0
   -2.0173   -8.5893    0.0000 C   0  0  0  0  0  0  0  0  0  0  0  0
   -1.6291  -10.0382    0.0000 C   0  0  0  0  0  0  0  0  0  0  0  0
   -0.1802  -10.4264    0.0000 C   0  0  0  0  0  0  0  0  0  0  0  0
    0.2081  -11.8753    0.0000 C   0  0  0  0  0  0  0  0  0  0  0  0
    0.5963  -13.3242    0.0000 C   0  0  0  0  0  0  0  0  0  0  0  0
    2.0452  -12.9360    0.0000 N   0  0  0  0  0  0  0  0  0  0  0  0
    2.4334  -11.4871    0.0000 As  0  0  0  0  0  3  0  0  0  0  0  0
   -0.8526  -13.7124    0.0000 C   0  0  0  0  0  0  0  0  0  0  0  0
   -2.0813  -14.5728    0.0000 C   0  0  0  0  0  0  0  0  0  0  0  0
   -0.7219  -15.2067    0.0000 O   0  0  0  0  0  0  0  0  0  0  0  0
   -2.7938   -5.6915    0.0000 C   0  0  0  0  0  0  0  0  0  0  0  0
   -3.1820   -4.2426    0.0000 C   0  0  0  0  0  0  0  0  0  0  0  0
   -4.6309   -3.8544    0.0000 O   0  0  0  0  0  0  0  0  0  0  0  0
   -2.1213   -3.1820    0.0000 C   0  0  0  0  0  0  0  0  0  0  0  0
   -1.0607   -2.1213    0.0000 C   0  0  0  0  0  0  0  0  0  0  0  0
   -0.0000   -1.0607    0.0000 C   0  0  0  0  0  0  0  0  0  0  0  0
    1.0607    0.0000    0.0000 C   0  0  0  0  0  0  0  0  0  0  0  0
    0.0000    1.0607    0.0000 C   0  0  0  0  0  0  0  0  0  0  0  0
    1.0607    2.1213    0.0000 C   0  0  0  0  0  0  0  0  0  0  0  0
    2.1213    1.0607    0.0000 C   0  0  0  0  0  0  0  0  0  0  0  0
    2.1213    3.1820    0.0000 C   0  0  0  0  0  0  0  0  0  0  0  0
    3.1820    4.2426    0.0000 C   0  0  0  0  0  0  0  0  0  0  0  0
   -1.0607    0.0000    0.0000 C   0  0  0  0  0  0  0  0  0  0  0  0
   -9.2617  -10.5304    0.0000 H   0  0  0  0  0  0  0  0  0  0  0  0
  -10.0382   -7.6327    0.0000 H   0  0  0  0  0  0  0  0  0  0  0  0
  -11.0989   -9.4698    0.0000 H   0  0  0  0  0  0  0  0  0  0  0  0
   -8.5893   -7.2444    0.0000 H   0  0  0  0  0  0  0  0  0  0  0  0
   -7.8128  -10.1422    0.0000 H   0  0  0  0  0  0  0  0  0  0  0  0
   -6.3640   -9.7540    0.0000 H   0  0  0  0  0  0  0  0  0  0  0  0
   -7.1404   -6.8562    0.0000 H   0  0  0  0  0  0  0  0  0  0  0  0
   -5.6915   -6.4680    0.0000 H   0  0  0  0  0  0  0  0  0  0  0  0
   -4.9151   -9.3658    0.0000 H   0  0  0  0  0  0  0  0  0  0  0  0
   -3.7312   -8.4058    0.0000 H   0  0  0  0  0  0  0  0  0  0  0  0
   -4.4164   -6.1379    0.0000 H   0  0  0  0  0  0  0  0  0  0  0  0
   -0.6248   -7.5734    0.0000 H   0  0  0  0  0  0  0  0  0  0  0  0
   -1.1654   -5.2668    0.0000 H   0  0  0  0  0  0  0  0  0  0  0  0
    0.4923   -6.3640    0.0000 H   0  0  0  0  0  0  0  0  0  0  0  0
   -2.8385   -8.9211    0.0000 H   0  0  0  0  0  0  0  0  0  0  0  0
   -1.1402   -8.4661    0.0000 H   0  0  0  0  0  0  0  0  0  0  0  0
   -2.6897  -11.0989    0.0000 H   0  0  0  0  0  0  0  0  0  0  0  0
    0.8805   -9.3658    0.0000 H   0  0  0  0  0  0  0  0  0  0  0  0
    1.0293  -11.5435    0.0000 H   0  0  0  0  0  0  0  0  0  0  0  0
    1.0042  -11.2968    0.0000 H   0  0  0  0  0  0  0  0  0  0  0  0
    0.9845  -14.7731    0.0000 H   0  0  0  0  0  0  0  0  0  0  0  0
    3.1058  -13.9966    0.0000 H   0  0  0  0  0  0  0  0  0  0  0  0
    3.8823  -11.0989    0.0000 H   0  0  0  0  0  0  0  0  0  0  0  0
    1.3727  -10.4264    0.0000 H   0  0  0  0  0  0  0  0  0  0  0  0
   -1.4865  -12.3530    0.0000 H   0  0  0  0  0  0  0  0  0  0  0  0
   -3.1420  -13.5121    0.0000 H   0  0  0  0  0  0  0  0  0  0  0  0
   -2.9417  -15.8015    0.0000 H   0  0  0  0  0  0  0  0  0  0  0  0
   -4.2792   -5.9002    0.0000 H   0  0  0  0  0  0  0  0  0  0  0  0
   -1.4030   -5.1296    0.0000 H   0  0  0  0  0  0  0  0  0  0  0  0
   -1.0607   -4.2426    0.0000 H   0  0  0  0  0  0  0  0  0  0  0  0
   -3.1820   -2.1213    0.0000 H   0  0  0  0  0  0  0  0  0  0  0  0
   -0.0000   -3.1820    0.0000 H   0  0  0  0  0  0  0  0  0  0  0  0
   -2.2427   -1.1979    0.0000 H   0  0  0  0  0  0  0  0  0  0  0  0
    1.0607   -2.1213    0.0000 H   0  0  0  0  0  0  0  0  0  0  0  0
    2.3465    0.7725    0.0000 H   0  0  0  0  0  0  0  0  0  0  0  0
    2.1213   -1.0607    0.0000 H   0  0  0  0  0  0  0  0  0  0  0  0
   -1.0607    2.1213    0.0000 H   0  0  0  0  0  0  0  0  0  0  0  0
    0.0000    3.1820    0.0000 H   0  0  0  0  0  0  0  0  0  0  0  0
    3.3034    1.9841    0.0000 H   0  0  0  0  0  0  0  0  0  0  0  0
    1.3488   -0.2251    0.0000 H   0  0  0  0  0  0  0  0  0  0  0  0
    3.1820    0.0000    0.0000 H   0  0  0  0  0  0  0  0  0  0  0  0
    3.3034    2.2585    0.0000 H   0  0  0  0  0  0  0  0  0  0  0  0
    1.0607    4.2426    0.0000 H   0  0  0  0  0  0  0  0  0  0  0  0
    2.1213    5.3033    0.0000 H   0  0  0  0  0  0  0  0  0  0  0  0
    4.2426    3.1820    0.0000 H   0  0  0  0  0  0  0  0  0  0  0  0
    4.2426    5.3033    0.0000 H   0  0  0  0  0  0  0  0  0  0  0  0
   -2.2427   -0.9235    0.0000 H   0  0  0  0  0  0  0  0  0  0  0  0
   -2.1213    1.0607    0.0000 H   0  0  0  0  0  0  0  0  0  0  0  0
  1  2  1  0
  2  3  1  0
  3  4  1  0
  4  5  1  0
  6  5  1  6
  6  7  1  0
  6  8  1  0
  8  9  1  0
  9 10  2  3
 10 11  1  0
 11 12  1  0
 12 13  1  0
 13 14  1  0
 12 15  1  0
 15 16  1  0
 16 17  1  0
  6 18  1  0
 18 19  1  0
 19 20  2  0
 19 21  1  0
 21 22  1  0
 22 23  1  0
 23 24  1  0
 24 25  1  0
 25 26  1  0
 26 27  1  0
 26 28  1  0
 28 29  1  0
 25 30  1  0
 17 15  1  0
 30 23  1  0
  1 31  1  0
  1 32  1  0
  1 33  1  0
  2 34  1  0
  2 35  1  0
  3 36  1  0
  3 37  1  0
  4 38  1  0
  4 39  1  0
  5 40  1  0
  5 41  1  0
  7 42  1  0
  7 43  1  0
  7 44  1  0
  8 45  1  0
  8 46  1  0
  9 47  1  0
 10 48  1  0
 11 49  1  0
 11 50  1  0
 12 51  1  6
 13 52  1  0
 14 53  1  0
 14 54  1  0
 15 55  1  6
 16 56  1  0
 16 57  1  0
 18 58  1  0
 18 59  1  0
 21 60  1  0
 21 61  1  0
 22 62  1  0
 22 63  1  0
 23 64  1  1
 24 65  1  0
 24 66  1  0
 25 67  1  6
 26 68  1  1
 27 69  1  0
 27 70  1  0
 27 71  1  0
 28 72  1  0
 28 73  1  0
 29 74  1  0
 29 75  1  0
 29 76  1  0
 30 77  1  0
 30 78  1  0
M  END
$$$$
