
     RDKit          2D

107119  0  0  0  0  0  0  0  0999 V2000
    2.7944   -2.2981    0.0000 C   0  0  0  0  0  0  0  0  0  0  0  0
    1.8302   -1.1491    0.0000 C   0  0  0  0  0  0  0  0  0  0  0  0
    0.8660    0.0000    0.0000 C   0  0  0  0  0  0  0  0  0  0  0  0
   -0.4330    0.7500    0.0000 C   0  0  0  0  0  0  0  0  0  0  0  0
    0.0800    2.1595    0.0000 C   0  0  0  0  0  0  0  0  0  0  0  0
    0.5930    3.5691    0.0000 C   0  0  0  0  0  0  0  0  0  0  0  0
   -0.7060    4.3191    0.0000 C   0  0  0  0  0  0  0  0  0  0  0  0
   -0.7060    5.8191    0.0000 C   0  0  0  0  0  0  0  0  0  0  0  0
    0.5930    5.0691    0.0000 C   0  0  0  0  0  0  0  0  0  0  0  0
   -0.4330   -0.7500    0.0000 C   0  0  0  0  0  0  0  0  0  0  0  0
   -1.7321   -1.5000    0.0000 C   0  0  0  0  0  0  0  0  0  0  0  0
   -3.1809   -1.8882    0.0000 C   0  0  0  0  0  0  0  0  0  0  0  0
   -3.9309   -3.1873    0.0000 C   0  0  0  0  0  0  0  0  0  0  0  0
   -3.5427   -4.6362    0.0000 C   0  0  0  0  0  0  0  0  0  0  0  0
   -2.2437   -5.3862    0.0000 C   0  0  0  0  0  0  0  0  0  0  0  0
   -3.3462   -6.4032    0.0000 C   0  0  0  0  0  0  0  0  0  0  0  0
   -4.8216   -6.6736    0.0000 C   0  0  0  0  0  0  0  0  0  0  0  0
   -6.1156   -7.4323    0.0000 C   0  0  0  0  0  0  0  0  0  0  0  0
   -3.8497   -7.8162    0.0000 C   0  0  0  0  0  0  0  0  0  0  0  0
   -3.6390   -9.3013    0.0000 C   0  0  0  0  0  0  0  0  0  0  0  0
   -2.7622  -10.5184    0.0000 C   0  0  0  0  0  0  0  0  0  0  0  0
   -1.4202  -11.1886    0.0000 C   0  0  0  0  0  0  0  0  0  0  0  0
   -0.8602  -12.5801    0.0000 C   0  0  0  0  0  0  0  0  0  0  0  0
   -0.3002  -13.9716    0.0000 C   0  0  0  0  0  0  0  0  0  0  0  0
    0.2599  -15.3632    0.0000 C   0  0  0  0  0  0  0  0  0  0  0  0
    0.8199  -16.7547    0.0000 C   0  0  0  0  0  0  0  0  0  0  0  0
    1.6570  -17.9994    0.0000 C   0  0  0  0  0  0  0  0  0  0  0  0
    0.5613  -18.9265    0.0000 C   0  0  0  0  0  0  0  0  0  0  0  0
    1.3985  -20.1711    0.0000 C   0  0  0  0  0  0  0  0  0  0  0  0
    0.8495  -17.4544    0.0000 C   0  0  0  0  0  0  0  0  0  0  0  0
   -0.6225  -17.1662    0.0000 C   0  0  0  0  0  0  0  0  0  0  0  0
   -0.9107  -18.6383    0.0000 C   0  0  0  0  0  0  0  0  0  0  0  0
    0.0794  -11.1584    0.0000 C   0  0  0  0  0  0  0  0  0  0  0  0
    1.3933  -10.4347    0.0000 C   0  0  0  0  0  0  0  0  0  0  0  0
    2.8567  -10.7643    0.0000 C   0  0  0  0  0  0  0  0  0  0  0  0
    2.2204   -9.1833    0.0000 C   0  0  0  0  0  0  0  0  0  0  0  0
    2.3712   -7.6909    0.0000 O   0  0  0  0  0  0  0  0  0  0  0  0
    1.8111   -6.2994    0.0000 C   0  0  0  0  0  0  0  0  0  0  0  0
    3.2241   -5.7958    0.0000 C   0  0  0  0  0  0  0  0  0  0  0  0
    2.0815   -4.8239    0.0000 C   0  0  0  0  0  0  0  0  0  0  0  0
    0.6686   -5.3275    0.0000 C   0  0  0  0  0  0  0  0  0  0  0  0
   -0.3485   -6.4300    0.0000 C   0  0  0  0  0  0  0  0  0  0  0  0
   -0.0448   -3.6989    0.0000 C   0  0  0  0  0  0  0  0  0  0  0  0
   -0.4330   -2.2500    0.0000 C   0  0  0  0  0  0  0  0  0  0  0  0
   -0.7948   -4.9979    0.0000 C   0  0  0  0  0  0  0  0  0  0  0  0
    3.9435   -1.3340    0.0000 H   0  0  0  0  0  0  0  0  0  0  0  0
    1.6453   -3.2623    0.0000 H   0  0  0  0  0  0  0  0  0  0  0  0
    3.7586   -3.4472    0.0000 H   0  0  0  0  0  0  0  0  0  0  0  0
    2.9793   -0.1849    0.0000 H   0  0  0  0  0  0  0  0  0  0  0  0
    0.8072   -2.2461    0.0000 H   0  0  0  0  0  0  0  0  0  0  0  0
    1.8534    0.9207    0.0000 H   0  0  0  0  0  0  0  0  0  0  0  0
   -1.9102    1.0105    0.0000 H   0  0  0  0  0  0  0  0  0  0  0  0
   -1.3295    2.6726    0.0000 H   0  0  0  0  0  0  0  0  0  0  0  0
    1.3954    1.8559    0.0000 H   0  0  0  0  0  0  0  0  0  0  0  0
    2.0703    3.3086    0.0000 H   0  0  0  0  0  0  0  0  0  0  0  0
   -2.0050    3.5691    0.0000 H   0  0  0  0  0  0  0  0  0  0  0  0
   -2.1832    6.0796    0.0000 H   0  0  0  0  0  0  0  0  0  0  0  0
   -0.1930    7.2286    0.0000 H   0  0  0  0  0  0  0  0  0  0  0  0
    1.8921    5.8191    0.0000 H   0  0  0  0  0  0  0  0  0  0  0  0
   -2.3061   -0.1142    0.0000 H   0  0  0  0  0  0  0  0  0  0  0  0
   -4.0941   -0.6982    0.0000 H   0  0  0  0  0  0  0  0  0  0  0  0
   -5.4181   -2.9915    0.0000 H   0  0  0  0  0  0  0  0  0  0  0  0
   -4.0113   -5.2810    0.0000 H   0  0  0  0  0  0  0  0  0  0  0  0
   -5.0315   -4.4533    0.0000 H   0  0  0  0  0  0  0  0  0  0  0  0
   -3.1240   -5.4841    0.0000 H   0  0  0  0  0  0  0  0  0  0  0  0
   -4.3422   -5.4919    0.0000 H   0  0  0  0  0  0  0  0  0  0  0  0
   -5.5116   -5.3417    0.0000 H   0  0  0  0  0  0  0  0  0  0  0  0
   -6.7109   -6.0555    0.0000 H   0  0  0  0  0  0  0  0  0  0  0  0
   -7.0264   -6.2405    0.0000 H   0  0  0  0  0  0  0  0  0  0  0  0
   -7.4096   -8.1910    0.0000 H   0  0  0  0  0  0  0  0  0  0  0  0
   -5.2824   -8.2605    0.0000 H   0  0  0  0  0  0  0  0  0  0  0  0
   -5.1316   -9.1526    0.0000 H   0  0  0  0  0  0  0  0  0  0  0  0
   -4.6124  -10.4426    0.0000 H   0  0  0  0  0  0  0  0  0  0  0  0
   -4.1530  -11.0803    0.0000 H   0  0  0  0  0  0  0  0  0  0  0  0
   -3.0938  -11.9813    0.0000 H   0  0  0  0  0  0  0  0  0  0  0  0
   -2.3906  -12.3325    0.0000 H   0  0  0  0  0  0  0  0  0  0  0  0
   -2.2517  -13.1402    0.0000 H   0  0  0  0  0  0  0  0  0  0  0  0
    0.5892  -12.1939    0.0000 H   0  0  0  0  0  0  0  0  0  0  0  0
    1.0914  -13.4116    0.0000 H   0  0  0  0  0  0  0  0  0  0  0  0
   -1.6917  -14.5317    0.0000 H   0  0  0  0  0  0  0  0  0  0  0  0
   -1.1895  -15.7494    0.0000 H   0  0  0  0  0  0  0  0  0  0  0  0
    1.6514  -14.8031    0.0000 H   0  0  0  0  0  0  0  0  0  0  0  0
    2.1453  -16.0523    0.0000 H   0  0  0  0  0  0  0  0  0  0  0  0
    2.9162  -17.1841    0.0000 H   0  0  0  0  0  0  0  0  0  0  0  0
    2.8538  -18.9037    0.0000 H   0  0  0  0  0  0  0  0  0  0  0  0
    0.1538  -21.0083    0.0000 H   0  0  0  0  0  0  0  0  0  0  0  0
    2.7359  -19.4920    0.0000 H   0  0  0  0  0  0  0  0  0  0  0  0
    2.2356  -21.4158    0.0000 H   0  0  0  0  0  0  0  0  0  0  0  0
    1.1377  -15.9824    0.0000 H   0  0  0  0  0  0  0  0  0  0  0  0
    2.3271  -17.1958    0.0000 H   0  0  0  0  0  0  0  0  0  0  0  0
   -1.6051  -16.0329    0.0000 H   0  0  0  0  0  0  0  0  0  0  0  0
   -1.1989  -20.1103    0.0000 H   0  0  0  0  0  0  0  0  0  0  0  0
   -2.3828  -18.3501    0.0000 H   0  0  0  0  0  0  0  0  0  0  0  0
   -0.0672  -12.6512    0.0000 H   0  0  0  0  0  0  0  0  0  0  0  0
    1.2220  -12.1303    0.0000 H   0  0  0  0  0  0  0  0  0  0  0  0
    1.7835  -11.8830    0.0000 H   0  0  0  0  0  0  0  0  0  0  0  0
    2.5271  -12.2276    0.0000 H   0  0  0  0  0  0  0  0  0  0  0  0
    3.3622   -9.3520    0.0000 H   0  0  0  0  0  0  0  0  0  0  0  0
    4.3200  -11.0938    0.0000 H   0  0  0  0  0  0  0  0  0  0  0  0
    3.3656  -10.1520    0.0000 H   0  0  0  0  0  0  0  0  0  0  0  0
    3.6112   -8.6214    0.0000 H   0  0  0  0  0  0  0  0  0  0  0  0
    3.9653   -7.0999    0.0000 H   0  0  0  0  0  0  0  0  0  0  0  0
    4.3796   -4.8394    0.0000 H   0  0  0  0  0  0  0  0  0  0  0  0
    2.1700   -3.3266    0.0000 H   0  0  0  0  0  0  0  0  0  0  0  0
   -0.6781   -7.8934    0.0000 H   0  0  0  0  0  0  0  0  0  0  0  0
    1.4074   -4.0745    0.0000 H   0  0  0  0  0  0  0  0  0  0  0  0
    1.0669   -2.2370    0.0000 H   0  0  0  0  0  0  0  0  0  0  0  0
  1  2  1  0
  2  3  1  0
  3  4  1  0
  4  5  1  0
  5  6  1  0
  6  7  1  0
  7  8  1  0
  8  9  1  0
 10  4  1  1
 10 11  1  0
 11 12  1  0
 12 13  2  0
 13 14  1  0
 14 15  1  0
 15 16  1  0
 16 17  1  0
 17 18  1  0
 17 19  1  0
 19 20  1  0
 20 21  1  0
 21 22  1  0
 22 23  1  0
 23 24  1  0
 24 25  1  0
 25 26  1  0
 26 27  1  0
 27 28  1  0
 28 29  1  6
 28 30  1  0
 30 31  1  0
 31 32  1  0
 22 33  1  0
 33 34  1  0
 34 35  1  0
 34 36  1  0
 36 37  1  0
 38 37  1  1
 38 39  1  0
 39 40  1  0
 40 41  1  0
 41 42  1  0
 42 43  1  0
 43 44  1  0
 43 45  1  0
 10  3  1  0
 44 11  1  0
  9  6  1  0
 44 10  1  0
  9  7  1  0
 45 15  1  0
 19 16  1  0
 31 26  1  0
 40 38  1  0
 45 41  1  6
 32 28  1  0
 41 38  1  1
 45 42  1  0
  1 46  1  0
  1 47  1  0
  1 48  1  0
  2 49  1  0
  2 50  1  0
  3 51  1  6
  4 52  1  1
  5 53  1  0
  5 54  1  0
  6 55  1  6
  7 56  1  6
  8 57  1  0
  8 58  1  0
  9 59  1  6
 11 60  1  6
 12 61  1  0
 13 62  1  0
 14 63  1  0
 14 64  1  0
 15 65  1  1
 16 66  1  1
 17 67  1  6
 18 68  1  0
 18 69  1  0
 18 70  1  0
 19 71  1  1
 20 72  1  0
 20 73  1  0
 21 74  1  0
 21 75  1  0
 22 76  1  6
 23 77  1  0
 23 78  1  0
 24 79  1  0
 24 80  1  0
 25 81  1  0
 25 82  1  0
 26 83  1  6
 27 84  1  0
 27 85  1  0
 29 86  1  0
 29 87  1  0
 29 88  1  0
 30 89  1  0
 30 90  1  0
 31 91  1  6
 32 92  1  0
 32 93  1  0
 33 94  1  0
 33 95  1  0
 34 96  1  1
 35 97  1  0
 35 98  1  0
 35 99  1  0
 36100  1  0
 36101  1  0
 39102  1  0
 39103  1  0
 40104  1  1
 42105  1  1
 43106  1  6
 44107  1  6
M  END
$$$$
