
     RDKit          2D

 42 42  0  0  0  0  0  0  0  0999 V2000
   -0.4874   -2.4271    0.0000 C   0  0  0  0  0  0  0  0  0  0  0  0
    0.3943   -1.2135    0.0000 C   0  0  0  0  0  0  0  0  0  0  0  0
    1.2760   -0.0000    0.0000 C   0  0  0  0  0  0  0  0  0  0  0  0
    2.3907   -1.0037    0.0000 C   0  0  0  0  0  0  0  0  0  0  0  0
    3.5054   -2.0074    0.0000 C   0  0  0  0  0  0  0  0  0  0  0  0
    4.6201   -3.0111    0.0000 N   0  0  0  0  0  0  0  0  0  0  0  0
    4.3083   -4.4783    0.0000 C   0  0  0  0  0  0  0  0  0  0  0  0
    6.0467   -2.5476    0.0000 C   0  0  0  0  0  0  0  0  0  0  0  0
    7.4733   -2.0840    0.0000 C   0  0  0  0  0  0  0  0  0  0  0  0
    8.8999   -1.6205    0.0000 C   0  0  0  0  0  0  0  0  0  0  0  0
    7.0098   -0.6575    0.0000 O   0  0  0  0  0  0  0  0  0  0  0  0
   -0.0231    0.7500    0.0000 C   0  0  0  0  0  0  0  0  0  0  0  0
    0.2888    2.2172    0.0000 C   0  0  0  0  0  0  0  0  0  0  0  0
    1.7806    2.3740    0.0000 C   0  0  0  0  0  0  0  0  0  0  0  0
    2.3907    1.0037    0.0000 C   0  0  0  0  0  0  0  0  0  0  0  0
   -1.3691   -3.6406    0.0000 H   0  0  0  0  0  0  0  0  0  0  0  0
   -1.7009   -1.5454    0.0000 H   0  0  0  0  0  0  0  0  0  0  0  0
    0.7261   -3.3087    0.0000 H   0  0  0  0  0  0  0  0  0  0  0  0
    0.9773   -1.7572    0.0000 H   0  0  0  0  0  0  0  0  0  0  0  0
   -0.9177   -0.4863    0.0000 H   0  0  0  0  0  0  0  0  0  0  0  0
    1.9335   -1.6567    0.0000 H   0  0  0  0  0  0  0  0  0  0  0  0
    3.5228   -0.0196    0.0000 H   0  0  0  0  0  0  0  0  0  0  0  0
    4.5091   -0.8927    0.0000 H   0  0  0  0  0  0  0  0  0  0  0  0
    2.5017   -3.1221    0.0000 H   0  0  0  0  0  0  0  0  0  0  0  0
    3.9964   -5.9455    0.0000 H   0  0  0  0  0  0  0  0  0  0  0  0
    5.7755   -4.7902    0.0000 H   0  0  0  0  0  0  0  0  0  0  0  0
    2.8410   -4.1664    0.0000 H   0  0  0  0  0  0  0  0  0  0  0  0
    5.5832   -1.1210    0.0000 H   0  0  0  0  0  0  0  0  0  0  0  0
    6.5102   -3.9741    0.0000 H   0  0  0  0  0  0  0  0  0  0  0  0
    7.9368   -3.5106    0.0000 H   0  0  0  0  0  0  0  0  0  0  0  0
   10.3265   -1.1570    0.0000 H   0  0  0  0  0  0  0  0  0  0  0  0
    9.3634   -3.0471    0.0000 H   0  0  0  0  0  0  0  0  0  0  0  0
    8.6137   -0.1481    0.0000 H   0  0  0  0  0  0  0  0  0  0  0  0
    7.8701    0.5713    0.0000 H   0  0  0  0  0  0  0  0  0  0  0  0
   -1.4496    1.2135    0.0000 H   0  0  0  0  0  0  0  0  0  0  0  0
   -0.7957   -0.5357    0.0000 H   0  0  0  0  0  0  0  0  0  0  0  0
    0.2888    3.7172    0.0000 H   0  0  0  0  0  0  0  0  0  0  0  0
   -1.2030    2.3740    0.0000 H   0  0  0  0  0  0  0  0  0  0  0  0
    3.2072    2.8375    0.0000 H   0  0  0  0  0  0  0  0  0  0  0  0
    1.4687    3.8412    0.0000 H   0  0  0  0  0  0  0  0  0  0  0  0
    3.4137   -0.0933    0.0000 H   0  0  0  0  0  0  0  0  0  0  0  0
    3.6897    1.7537    0.0000 H   0  0  0  0  0  0  0  0  0  0  0  0
  1  2  1  0
  2  3  1  0
  3  4  1  0
  4  5  1  0
  5  6  1  0
  6  7  1  0
  6  8  1  0
  8  9  1  0
  9 10  1  0
  9 11  1  0
  3 12  1  0
 12 13  1  0
 13 14  1  0
 14 15  1  0
 15  3  1  0
  1 16  1  0
  1 17  1  0
  1 18  1  0
  2 19  1  0
  2 20  1  0
  4 21  1  0
  4 22  1  0
  5 23  1  0
  5 24  1  0
  7 25  1  0
  7 26  1  0
  7 27  1  0
  8 28  1  0
  8 29  1  0
  9 30  1  0
 10 31  1  0
 10 32  1  0
 10 33  1  0
 11 34  1  0
 12 35  1  0
 12 36  1  0
 13 37  1  0
 13 38  1  0
 14 39  1  0
 14 40  1  0
 15 41  1  0
 15 42  1  0
M  END
$$$$
