
     RDKit          3D

 24 26  0  0  0  0  0  0  0  0999 V2000
   18.5394  -29.3314  -17.2615 N   0  0  0  0  0  0  0  0  0  0  0  0
   18.6835  -30.6413  -17.2969 C   0  0  0  0  0  0  0  0  0  0  0  0
   17.4333  -28.6967  -16.9045 C   0  0  0  0  0  0  0  0  0  0  0  0
   17.4383  -27.3577  -17.0055 N   0  0  0  0  0  0  0  0  0  0  0  0
   16.7443  -29.1421  -15.8497 N   0  0  0  0  0  0  0  0  0  0  0  0
   17.6556  -31.4014  -16.9823 C   0  0  0  0  0  0  0  0  0  0  0  0
   17.5587  -32.7537  -17.0439 N   0  0  0  0  0  0  0  0  0  0  0  0
   17.9194  -27.9552  -18.1171 C   0  0  0  0  0  0  0  0  0  0  0  0
   15.3304  -28.9853  -15.9495 C   0  0  0  0  0  0  0  0  0  0  0  0
   14.6891  -28.1739  -16.8876 C   0  0  0  0  0  0  0  0  0  0  0  0
   14.8954  -30.2575  -15.6742 C   0  0  0  0  0  0  0  0  0  0  0  0
   14.0012  -30.4393  -14.5358 C   0  0  0  0  0  0  0  0  0  0  0  0
   13.1491  -28.5151  -17.4243 Cl  0  0  0  0  0  0  0  0  0  0  0  0
   15.1341  -26.8137  -17.1297 C   0  0  0  0  0  0  0  0  0  0  0  0
   13.5212  -31.4689  -14.0038 C   0  0  0  0  0  0  0  0  0  0  0  0
   14.0623  -26.1060  -17.0019 O   0  0  0  0  0  0  0  0  0  0  0  0
   13.8548  -32.3911  -12.8432 C   0  0  0  0  0  0  0  0  0  0  0  0
   15.5013  -25.8204  -16.4350 O   0  0  0  0  0  0  0  0  0  0  0  0
   15.1304  -33.1005  -12.9082 C   0  0  0  0  0  0  0  0  0  0  0  0
   13.0299  -29.2256  -14.9135 C   0  0  0  0  0  0  0  0  0  0  0  0
   15.8153  -31.2180  -14.9837 C   0  0  0  0  0  0  0  0  0  0  0  0
   14.0009  -30.0475  -14.9604 C   0  0  0  0  0  0  0  0  0  0  0  0
   15.0535  -34.3794  -13.6672 C   0  0  0  0  0  0  0  0  0  0  0  0
   15.3861  -34.1947  -12.0163 N   0  0  0  0  0  0  0  0  0  0  0  0
  2  1  1  0
  3  1  1  0
  4  3  1  0
  5  3  1  0
  6  2  2  3
  7  6  1  0
  8  1  1  0
  8  3  1  0
  8  4  1  0
  9  5  1  0
 10  9  1  0
 11  9  1  0
 13 10  1  0
 14 10  1  0
 15 12  2  3
 16 14  1  0
 17 15  1  0
 18 14  1  0
 19 17  1  0
 21 11  1  0
 22 11  1  0
 22 12  1  0
 22 20  2  0
 23 19  1  0
 24 19  1  0
 24 23  1  0
M  END
$$$$
