
     RDKit          2D

105113  0  0  0  0  0  0  0  0999 V2000
    8.9042    5.0653    0.0000 C   0  0  0  0  0  0  0  0  0  0  0  0
    8.6437    3.5881    0.0000 N   0  0  0  0  0  0  0  0  0  0  0  0
    7.2341    3.0751    0.0000 C   0  0  0  0  0  0  0  0  0  0  0  0
    5.8246    2.5621    0.0000 C   0  0  0  0  0  0  0  0  0  0  0  0
    4.4151    2.0490    0.0000 C   0  0  0  0  0  0  0  0  0  0  0  0
    3.6651    0.7500    0.0000 C   0  0  0  0  0  0  0  0  0  0  0  0
    2.3660    0.0000    0.0000 C   0  0  0  0  0  0  0  0  0  0  0  0
    0.8660    0.0000    0.0000 C   0  0  0  0  0  0  0  0  0  0  0  0
    2.1651   -0.7500    0.0000 C   0  0  0  0  0  0  0  0  0  0  0  0
    2.1651   -2.2500    0.0000 C   0  0  0  0  0  0  0  0  0  0  0  0
    0.8660   -3.0000    0.0000 C   0  0  0  0  0  0  0  0  0  0  0  0
    1.0836   -1.5159    0.0000 C   0  0  0  0  0  0  0  0  0  0  0  0
   -1.1830    3.5490    0.0000 C   0  0  0  0  0  0  0  0  0  0  0  0
   -0.4330    4.8481    0.0000 C   0  0  0  0  0  0  0  0  0  0  0  0
    0.8660    5.5981    0.0000 C   0  0  0  0  0  0  0  0  0  0  0  0
    2.3660    5.5981    0.0000 C   0  0  0  0  0  0  0  0  0  0  0  0
    1.8530    7.0076    0.0000 C   0  0  0  0  0  0  0  0  0  0  0  0
    3.5151    6.5623    0.0000 C   0  0  0  0  0  0  0  0  0  0  0  0
    2.5509    7.7113    0.0000 C   0  0  0  0  0  0  0  0  0  0  0  0
    3.7000    8.6755    0.0000 C   0  0  0  0  0  0  0  0  0  0  0  0
    4.8490    9.6397    0.0000 C   0  0  0  0  0  0  0  0  0  0  0  0
    4.0990   10.9387    0.0000 C   0  0  0  0  0  0  0  0  0  0  0  0
    4.8490   12.2378    0.0000 C   0  0  0  0  0  0  0  0  0  0  0  0
    3.7000   13.2019    0.0000 C   0  0  0  0  0  0  0  0  0  0  0  0
    2.9500   14.5010    0.0000 C   0  0  0  0  0  0  0  0  0  0  0  0
    4.4500   14.5010    0.0000 C   0  0  0  0  0  0  0  0  0  0  0  0
    5.5990   10.9387    0.0000 C   0  0  0  0  0  0  0  0  0  0  0  0
    4.6642    7.5264    0.0000 C   0  0  0  0  0  0  0  0  0  0  0  0
    5.6283    6.3774    0.0000 C   0  0  0  0  0  0  0  0  0  0  0  0
    6.5925    5.2283    0.0000 C   0  0  0  0  0  0  0  0  0  0  0  0
    5.6283    4.0792    0.0000 C   0  0  0  0  0  0  0  0  0  0  0  0
    7.8916    4.4783    0.0000 N   0  0  0  0  0  0  0  0  0  0  0  0
    7.8916    5.9783    0.0000 C   0  0  0  0  0  0  0  0  0  0  0  0
    9.3688    6.2388    0.0000 N   0  0  0  0  0  0  0  0  0  0  0  0
    9.8818    7.6483    0.0000 C   0  0  0  0  0  0  0  0  0  0  0  0
   10.3948    9.0579    0.0000 Mg  0  0  0  0  0  2  0  0  0  0  0  0
   10.9079   10.4674    0.0000 N   0  0  0  0  0  0  0  0  0  0  0  0
    3.6651    4.8481    0.0000 C   0  0  0  0  0  0  0  0  0  0  0  0
    4.2752    6.2184    0.0000 Cl  0  0  0  0  0  0  0  0  0  0  0  0
    4.4151    3.5490    0.0000 C   0  0  0  0  0  0  0  0  0  0  0  0
   -1.1830    2.0490    0.0000 C   0  0  0  0  0  0  0  0  0  0  0  0
   -0.4330    0.7500    0.0000 C   0  0  0  0  0  0  0  0  0  0  0  0
   -0.4330   -0.7500    0.0000 C   0  0  0  0  0  0  0  0  0  0  0  0
   -0.4330   -2.2500    0.0000 C   0  0  0  0  0  0  0  0  0  0  0  0
    9.2284    5.7936    0.0000 H   0  0  0  0  0  0  0  0  0  0  0  0
   10.3386    4.6267    0.0000 H   0  0  0  0  0  0  0  0  0  0  0  0
    7.4269    5.3258    0.0000 H   0  0  0  0  0  0  0  0  0  0  0  0
    9.7927    2.6239    0.0000 H   0  0  0  0  0  0  0  0  0  0  0  0
    7.7472    1.6656    0.0000 H   0  0  0  0  0  0  0  0  0  0  0  0
    7.0774    4.5669    0.0000 H   0  0  0  0  0  0  0  0  0  0  0  0
    5.1436    3.8986    0.0000 H   0  0  0  0  0  0  0  0  0  0  0  0
    6.3376    1.1525    0.0000 H   0  0  0  0  0  0  0  0  0  0  0  0
    5.5121    1.0261    0.0000 H   0  0  0  0  0  0  0  0  0  0  0  0
    5.0995    0.3114    0.0000 H   0  0  0  0  0  0  0  0  0  0  0  0
    4.2752   -0.6203    0.0000 H   0  0  0  0  0  0  0  0  0  0  0  0
    3.5151   -0.9642    0.0000 H   0  0  0  0  0  0  0  0  0  0  0  0
    2.7544   -1.4488    0.0000 H   0  0  0  0  0  0  0  0  0  0  0  0
    3.5353   -1.3602    0.0000 H   0  0  0  0  0  0  0  0  0  0  0  0
    3.0039    0.4935    0.0000 H   0  0  0  0  0  0  0  0  0  0  0  0
    2.6781   -3.6595    0.0000 H   0  0  0  0  0  0  0  0  0  0  0  0
    3.6423   -1.9895    0.0000 H   0  0  0  0  0  0  0  0  0  0  0  0
    0.8660   -4.5000    0.0000 H   0  0  0  0  0  0  0  0  0  0  0  0
    2.5378   -1.8837    0.0000 H   0  0  0  0  0  0  0  0  0  0  0  0
    1.9236   -0.2731    0.0000 H   0  0  0  0  0  0  0  0  0  0  0  0
   -2.6319    3.9373    0.0000 H   0  0  0  0  0  0  0  0  0  0  0  0
   -1.4937    5.9087    0.0000 H   0  0  0  0  0  0  0  0  0  0  0  0
    0.3041    6.9888    0.0000 H   0  0  0  0  0  0  0  0  0  0  0  0
    1.1720    8.3441    0.0000 H   0  0  0  0  0  0  0  0  0  0  0  0
    3.0965    7.8465    0.0000 H   0  0  0  0  0  0  0  0  0  0  0  0
    0.3914    6.6702    0.0000 H   0  0  0  0  0  0  0  0  0  0  0  0
    4.3320    5.3042    0.0000 H   0  0  0  0  0  0  0  0  0  0  0  0
    1.7340    8.9694    0.0000 H   0  0  0  0  0  0  0  0  0  0  0  0
    1.2027    7.0538    0.0000 H   0  0  0  0  0  0  0  0  0  0  0  0
    2.7358    9.8246    0.0000 H   0  0  0  0  0  0  0  0  0  0  0  0
    6.1071    8.8228    0.0000 H   0  0  0  0  0  0  0  0  0  0  0  0
    2.5990   10.9387    0.0000 H   0  0  0  0  0  0  0  0  0  0  0  0
    6.1071   13.0547    0.0000 H   0  0  0  0  0  0  0  0  0  0  0  0
    2.5509   12.2378    0.0000 H   0  0  0  0  0  0  0  0  0  0  0  0
    1.5404   13.9880    0.0000 H   0  0  0  0  0  0  0  0  0  0  0  0
    2.6895   15.9782    0.0000 H   0  0  0  0  0  0  0  0  0  0  0  0
    4.7104   15.9782    0.0000 H   0  0  0  0  0  0  0  0  0  0  0  0
    5.9115   14.1636    0.0000 H   0  0  0  0  0  0  0  0  0  0  0  0
    7.0990   10.9387    0.0000 H   0  0  0  0  0  0  0  0  0  0  0  0
    5.9222    8.3434    0.0000 H   0  0  0  0  0  0  0  0  0  0  0  0
    6.6513    7.4744    0.0000 H   0  0  0  0  0  0  0  0  0  0  0  0
    4.6054    5.2803    0.0000 H   0  0  0  0  0  0  0  0  0  0  0  0
    4.9709    2.7310    0.0000 H   0  0  0  0  0  0  0  0  0  0  0  0
    6.9766    3.4218    0.0000 H   0  0  0  0  0  0  0  0  0  0  0  0
    4.3703    4.8962    0.0000 H   0  0  0  0  0  0  0  0  0  0  0  0
    8.9336    3.3994    0.0000 H   0  0  0  0  0  0  0  0  0  0  0  0
    7.5542    7.4399    0.0000 H   0  0  0  0  0  0  0  0  0  0  0  0
   10.4658    5.2158    0.0000 H   0  0  0  0  0  0  0  0  0  0  0  0
   11.2913    7.1353    0.0000 H   0  0  0  0  0  0  0  0  0  0  0  0
    8.4723    8.1613    0.0000 H   0  0  0  0  0  0  0  0  0  0  0  0
    9.9437   11.6165    0.0000 H   0  0  0  0  0  0  0  0  0  0  0  0
   12.3851   10.7279    0.0000 H   0  0  0  0  0  0  0  0  0  0  0  0
    5.1423    5.1085    0.0000 H   0  0  0  0  0  0  0  0  0  0  0  0
    5.0725    4.8973    0.0000 H   0  0  0  0  0  0  0  0  0  0  0  0
    5.9069    3.3923    0.0000 H   0  0  0  0  0  0  0  0  0  0  0  0
   -2.2801    1.0261    0.0000 H   0  0  0  0  0  0  0  0  0  0  0  0
   -2.5926    2.5621    0.0000 H   0  0  0  0  0  0  0  0  0  0  0  0
   -1.8238    0.1881    0.0000 H   0  0  0  0  0  0  0  0  0  0  0  0
   -1.9330   -0.7500    0.0000 H   0  0  0  0  0  0  0  0  0  0  0  0
   -1.9102   -1.9895    0.0000 H   0  0  0  0  0  0  0  0  0  0  0  0
   -0.9460   -3.6595    0.0000 H   0  0  0  0  0  0  0  0  0  0  0  0
  1  2  1  0
  2  3  1  0
  3  4  1  0
  4  5  1  0
  5  6  1  0
  6  7  1  0
  7  8  1  0
  8  9  1  0
  9 10  1  0
 10 11  1  0
 11 12  1  0
 12 13  1  0
 13 14  1  0
 14 15  2  0
 15 16  1  0
 16 17  1  0
 16 18  1  0
 18 19  1  0
 19 20  1  0
 20 21  1  0
 21 22  1  0
 22 23  1  0
 23 24  1  0
 24 25  1  0
 25 26  1  0
 23 27  1  0
 20 28  1  0
 28 29  1  0
 29 30  1  0
 30 31  1  0
 30 32  1  0
 32 33  1  0
 33 34  1  0
 34 35  1  0
 35 36  1  0
 36 37  1  0
 16 38  1  0
 38 39  1  0
 38 40  1  0
 13 41  1  0
 41 42  1  0
 42 43  1  0
 43 44  1  0
 40  5  1  0
 42  8  1  0
 43  8  1  0
 44 11  1  0
 28 18  1  0
 33 30  1  0
 27 21  1  0
 27 22  1  0
 26 24  1  0
  1 45  1  0
  1 46  1  0
  1 47  1  0
  2 48  1  0
  3 49  1  0
  3 50  1  0
  4 51  1  0
  4 52  1  0
  5 53  1  0
  6 54  1  0
  6 55  1  0
  7 56  1  0
  7 57  1  0
  9 58  1  0
  9 59  1  0
 10 60  1  0
 10 61  1  0
 11 62  1  0
 12 63  1  0
 12 64  1  0
 13 65  1  0
 14 66  1  0
 15 67  1  0
 17 68  1  0
 17 69  1  0
 17 70  1  0
 18 71  1  0
 19 72  1  0
 19 73  1  0
 20 74  1  0
 21 75  1  0
 22 76  1  0
 23 77  1  0
 24 78  1  0
 25 79  1  0
 25 80  1  0
 26 81  1  0
 26 82  1  0
 27 83  1  0
 28 84  1  0
 29 85  1  0
 29 86  1  0
 31 87  1  0
 31 88  1  0
 31 89  1  0
 32 90  1  0
 33 91  1  0
 34 92  1  0
 35 93  1  0
 35 94  1  0
 37 95  1  0
 37 96  1  0
 38 97  1  0
 40 98  1  0
 40 99  1  0
 41100  1  0
 41101  1  0
 42102  1  0
 43103  1  0
 44104  1  0
 44105  1  0
M  END
$$$$
