
     RDKit          2D

 98108  0  0  0  0  0  0  0  0999 V2000
    5.2358    3.1867    0.0000 C   0  0  0  0  0  0  0  0  0  0  0  0
    4.2716    2.0377    0.0000 C   0  0  0  0  0  0  0  0  0  0  0  0
    3.3074    0.8886    0.0000 C   0  0  0  0  0  0  0  0  0  0  0  0
    1.8302    1.1491    0.0000 C   0  0  0  0  0  0  0  0  0  0  0  0
    0.8660    0.0000    0.0000 C   0  0  0  0  0  0  0  0  0  0  0  0
    1.8302   -1.1491    0.0000 C   0  0  0  0  0  0  0  0  0  0  0  0
   -0.4330    0.7500    0.0000 C   0  0  0  0  0  0  0  0  0  0  0  0
   -1.9102    1.0105    0.0000 C   0  0  0  0  0  0  0  0  0  0  0  0
   -3.4093    0.9581    0.0000 C   0  0  0  0  0  0  0  0  0  0  0  0
   -3.9223    2.3677    0.0000 C   0  0  0  0  0  0  0  0  0  0  0  0
   -2.7403    3.2912    0.0000 C   0  0  0  0  0  0  0  0  0  0  0  0
   -1.3921    3.9487    0.0000 C   0  0  0  0  0  0  0  0  0  0  0  0
   -1.4968    2.4524    0.0000 As  0  0  0  0  0  3  0  0  0  0  0  0
   -4.1311    3.8531    0.0000 C   0  0  0  0  0  0  0  0  0  0  0  0
   -3.8192    5.3203    0.0000 O   0  0  0  0  0  0  0  0  0  0  0  0
   -5.6302    3.9054    0.0000 C   0  0  0  0  0  0  0  0  0  0  0  0
   -5.5778    5.4045    0.0000 C   0  0  0  0  0  0  0  0  0  0  0  0
   -7.0769    5.4568    0.0000 C   0  0  0  0  0  0  0  0  0  0  0  0
   -8.5760    5.5092    0.0000 C   0  0  0  0  0  0  0  0  0  0  0  0
  -10.0751    5.5615    0.0000 O   0  0  0  0  0  0  0  0  0  0  0  0
   -7.1293    3.9578    0.0000 N   0  0  0  0  0  0  0  0  0  0  0  0
   -6.1076    4.4174    0.0000 C   0  0  0  0  0  0  0  0  0  0  0  0
   -4.1311    3.8531    0.0000 C   0  0  0  0  0  0  0  0  0  0  0  0
   -2.6320    3.8007    0.0000 C   0  0  0  0  0  0  0  0  0  0  0  0
   -1.1329    3.7484    0.0000 C   0  0  0  0  0  0  0  0  0  0  0  0
    0.3662    3.6960    0.0000 C   0  0  0  0  0  0  0  0  0  0  0  0
    0.6780    5.1632    0.0000 C   0  0  0  0  0  0  0  0  0  0  0  0
    0.9899    6.6305    0.0000 C   0  0  0  0  0  0  0  0  0  0  0  0
    2.1046    5.6268    0.0000 C   0  0  0  0  0  0  0  0  0  0  0  0
    3.5312    6.0903    0.0000 C   0  0  0  0  0  0  0  0  0  0  0  0
    3.8431    7.5575    0.0000 O   0  0  0  0  0  0  0  0  0  0  0  0
    4.6459    5.0866    0.0000 O   0  0  0  0  0  0  0  0  0  0  0  0
    6.0725    5.5501    0.0000 C   0  0  0  0  0  0  0  0  0  0  0  0
    7.4991    6.0136    0.0000 C   0  0  0  0  0  0  0  0  0  0  0  0
    1.7927    4.1595    0.0000 C   0  0  0  0  0  0  0  0  0  0  0  0
    2.7768    3.0275    0.0000 I   0  0  0  0  0  0  0  0  0  0  0  0
   -0.4330   -0.7500    0.0000 C   0  0  0  0  0  0  0  0  0  0  0  0
   -0.4330   -2.2500    0.0000 C   0  0  0  0  0  0  0  0  0  0  0  0
   -1.7321   -1.5000    0.0000 C   0  0  0  0  0  0  0  0  0  0  0  0
   -2.6137   -2.7135    0.0000 C   0  0  0  0  0  0  0  0  0  0  0  0
   -4.0403   -2.2500    0.0000 C   0  0  0  0  0  0  0  0  0  0  0  0
   -4.0403   -0.7500    0.0000 C   0  0  0  0  0  0  0  0  0  0  0  0
   -5.5321   -0.9068    0.0000 C   0  0  0  0  0  0  0  0  0  0  0  0
   -7.0239   -1.0636    0.0000 C   0  0  0  0  0  0  0  0  0  0  0  0
   -2.6137   -0.2865    0.0000 C   0  0  0  0  0  0  0  0  0  0  0  0
    6.3328    4.2097    0.0000 H   0  0  0  0  0  0  0  0  0  0  0  0
    4.0867    4.1509    0.0000 H   0  0  0  0  0  0  0  0  0  0  0  0
    6.3848    2.2225    0.0000 H   0  0  0  0  0  0  0  0  0  0  0  0
    5.4207    1.0735    0.0000 H   0  0  0  0  0  0  0  0  0  0  0  0
    3.0136    2.8546    0.0000 H   0  0  0  0  0  0  0  0  0  0  0  0
    3.9884   -0.4479    0.0000 H   0  0  0  0  0  0  0  0  0  0  0  0
    1.1492    2.4856    0.0000 H   0  0  0  0  0  0  0  0  0  0  0  0
    2.7944   -2.2981    0.0000 H   0  0  0  0  0  0  0  0  0  0  0  0
    3.0882   -0.3321    0.0000 H   0  0  0  0  0  0  0  0  0  0  0  0
    0.8072   -2.2461    0.0000 H   0  0  0  0  0  0  0  0  0  0  0  0
    0.2480    2.0865    0.0000 H   0  0  0  0  0  0  0  0  0  0  0  0
   -2.3738   -0.4161    0.0000 H   0  0  0  0  0  0  0  0  0  0  0  0
   -3.5662   -0.5337    0.0000 H   0  0  0  0  0  0  0  0  0  0  0  0
   -4.9093    0.9582    0.0000 H   0  0  0  0  0  0  0  0  0  0  0  0
   -5.2467    1.6634    0.0000 H   0  0  0  0  0  0  0  0  0  0  0  0
   -1.6267    5.4302    0.0000 H   0  0  0  0  0  0  0  0  0  0  0  0
    0.0174    4.4618    0.0000 H   0  0  0  0  0  0  0  0  0  0  0  0
   -2.5472    6.1152    0.0000 H   0  0  0  0  0  0  0  0  0  0  0  0
   -5.6825    2.4063    0.0000 H   0  0  0  0  0  0  0  0  0  0  0  0
   -4.4808    6.4275    0.0000 H   0  0  0  0  0  0  0  0  0  0  0  0
   -7.0246    6.9559    0.0000 H   0  0  0  0  0  0  0  0  0  0  0  0
   -8.5237    7.0083    0.0000 H   0  0  0  0  0  0  0  0  0  0  0  0
   -8.6284    4.0101    0.0000 H   0  0  0  0  0  0  0  0  0  0  0  0
  -10.8700    4.2895    0.0000 H   0  0  0  0  0  0  0  0  0  0  0  0
   -6.0437    2.4635    0.0000 H   0  0  0  0  0  0  0  0  0  0  0  0
   -3.7176    5.2949    0.0000 H   0  0  0  0  0  0  0  0  0  0  0  0
   -3.8192    2.3859    0.0000 H   0  0  0  0  0  0  0  0  0  0  0  0
   -2.5797    5.2998    0.0000 H   0  0  0  0  0  0  0  0  0  0  0  0
   -2.6844    2.3016    0.0000 H   0  0  0  0  0  0  0  0  0  0  0  0
   -0.8982    5.2299    0.0000 H   0  0  0  0  0  0  0  0  0  0  0  0
   -0.8210    2.2812    0.0000 H   0  0  0  0  0  0  0  0  0  0  0  0
    0.5749    2.2106    0.0000 H   0  0  0  0  0  0  0  0  0  0  0  0
   -0.4009    7.1924    0.0000 H   0  0  0  0  0  0  0  0  0  0  0  0
    1.7848    7.9025    0.0000 H   0  0  0  0  0  0  0  0  0  0  0  0
    5.6090    6.9767    0.0000 H   0  0  0  0  0  0  0  0  0  0  0  0
    6.7065    4.1907    0.0000 H   0  0  0  0  0  0  0  0  0  0  0  0
    8.9257    6.4772    0.0000 H   0  0  0  0  0  0  0  0  0  0  0  0
    7.0356    7.4402    0.0000 H   0  0  0  0  0  0  0  0  0  0  0  0
    7.9626    4.5871    0.0000 H   0  0  0  0  0  0  0  0  0  0  0  0
    1.0014   -2.6886    0.0000 H   0  0  0  0  0  0  0  0  0  0  0  0
   -0.7704   -3.7116    0.0000 H   0  0  0  0  0  0  0  0  0  0  0  0
   -1.4158   -3.6163    0.0000 H   0  0  0  0  0  0  0  0  0  0  0  0
   -3.2238   -4.0838    0.0000 H   0  0  0  0  0  0  0  0  0  0  0  0
   -4.3522   -3.7172    0.0000 H   0  0  0  0  0  0  0  0  0  0  0  0
   -5.5401   -2.2762    0.0000 H   0  0  0  0  0  0  0  0  0  0  0  0
   -4.5287    0.6683    0.0000 H   0  0  0  0  0  0  0  0  0  0  0  0
   -5.8696    0.5548    0.0000 H   0  0  0  0  0  0  0  0  0  0  0  0
   -5.5583   -2.4066    0.0000 H   0  0  0  0  0  0  0  0  0  0  0  0
   -8.5157   -1.2204    0.0000 H   0  0  0  0  0  0  0  0  0  0  0  0
   -6.8671   -2.5554    0.0000 H   0  0  0  0  0  0  0  0  0  0  0  0
   -7.1807    0.4282    0.0000 H   0  0  0  0  0  0  0  0  0  0  0  0
   -3.5373    0.8955    0.0000 H   0  0  0  0  0  0  0  0  0  0  0  0
   -1.3147    0.4635    0.0000 H   0  0  0  0  0  0  0  0  0  0  0  0
  1  2  1  0
  2  3  1  0
  3  4  2  3
  4  5  1  0
  5  6  1  6
  5  7  1  0
  7  8  1  0
  8  9  1  0
  9 10  1  0
 10 11  1  0
 11 12  1  6
 12 13  1  0
 11 14  1  0
 14 15  1  6
 14 16  1  0
 16 17  1  0
 17 18  1  0
 18 19  1  0
 19 20  1  0
 18 21  1  0
 21 22  1  0
 22 23  1  0
 23 24  1  0
 24 25  1  0
 25 26  1  0
 26 27  1  0
 27 28  1  6
 28 29  1  0
 29 30  1  1
 30 31  2  0
 30 32  1  0
 32 33  1  0
 33 34  1  0
 29 35  1  0
 35 36  1  6
  7 37  1  0
 37 38  1  6
 39 38  1  1
 39 40  1  0
 40 41  1  0
 41 42  1  0
 42 43  1  0
 43 44  1  0
 42 45  1  0
 37  5  1  0
 45 39  1  0
 13  8  1  0
 21 16  1  0
 35 26  1  0
 39 37  1  0
 14 10  1  0
 22 17  1  0
 29 27  1  0
 13 11  1  0
 35 27  1  0
  1 46  1  0
  1 47  1  0
  1 48  1  0
  2 49  1  0
  2 50  1  0
  3 51  1  0
  4 52  1  0
  6 53  1  0
  6 54  1  0
  6 55  1  0
  7 56  1  1
  8 57  1  1
  9 58  1  0
  9 59  1  0
 10 60  1  6
 12 61  1  0
 12 62  1  0
 15 63  1  0
 16 64  1  6
 17 65  1  6
 18 66  1  6
 19 67  1  0
 19 68  1  0
 20 69  1  0
 22 70  1  6
 23 71  1  0
 23 72  1  0
 24 73  1  0
 24 74  1  0
 25 75  1  0
 25 76  1  0
 26 77  1  1
 28 78  1  0
 28 79  1  0
 33 80  1  0
 33 81  1  0
 34 82  1  0
 34 83  1  0
 34 84  1  0
 38 85  1  0
 38 86  1  0
 40 87  1  0
 40 88  1  0
 41 89  1  0
 41 90  1  0
 42 91  1  1
 43 92  1  0
 43 93  1  0
 44 94  1  0
 44 95  1  0
 44 96  1  0
 45 97  1  0
 45 98  1  0
M  END
$$$$
