
     RDKit          2D

 57 62  0  0  0  0  0  0  0  0999 V2000
    0.4753    4.9579    0.0000 C   0  0  0  0  0  0  0  0  0  0  0  0
   -0.1348    3.5875    0.0000 C   0  0  0  0  0  0  0  0  0  0  0  0
    0.1771    2.1203    0.0000 O   0  0  0  0  0  0  0  0  0  0  0  0
   -0.4330    0.7500    0.0000 C   0  0  0  0  0  0  0  0  0  0  0  0
    0.8660    0.0000    0.0000 C   0  0  0  0  0  0  0  0  0  0  0  0
    1.8302    1.1491    0.0000 O   0  0  0  0  0  0  0  0  0  0  0  0
   -0.4330   -0.7500    0.0000 C   0  0  0  0  0  0  0  0  0  0  0  0
   -1.7321    0.0000    0.0000 C   0  0  0  0  0  0  0  0  0  0  0  0
   -3.2238    0.1568    0.0000 C   0  0  0  0  0  0  0  0  0  0  0  0
   -4.3386    1.1605    0.0000 N   0  0  0  0  0  0  0  0  0  0  0  0
   -4.6504    2.6277    0.0000 C   0  0  0  0  0  0  0  0  0  0  0  0
   -4.0403    3.9980    0.0000 C   0  0  0  0  0  0  0  0  0  0  0  0
   -2.7413    4.7480    0.0000 C   0  0  0  0  0  0  0  0  0  0  0  0
   -2.5845    6.2398    0.0000 C   0  0  0  0  0  0  0  0  0  0  0  0
   -2.4277    7.7316    0.0000 C   0  0  0  0  0  0  0  0  0  0  0  0
   -2.2709    9.2234    0.0000 C   0  0  0  0  0  0  0  0  0  0  0  0
   -2.1141   10.7152    0.0000 C   0  0  0  0  0  0  0  0  0  0  0  0
   -1.9573   12.2069    0.0000 C   0  0  0  0  0  0  0  0  0  0  0  0
   -1.8005   13.6987    0.0000 C   0  0  0  0  0  0  0  0  0  0  0  0
   -0.3042   13.8034    0.0000 C   0  0  0  0  0  0  0  0  0  0  0  0
    0.3534   15.1516    0.0000 C   0  0  0  0  0  0  0  0  0  0  0  0
   -1.1430   15.0469    0.0000 C   0  0  0  0  0  0  0  0  0  0  0  0
   -1.0927    6.0830    0.0000 C   0  0  0  0  0  0  0  0  0  0  0  0
   -1.2495    4.5912    0.0000 C   0  0  0  0  0  0  0  0  0  0  0  0
    1.1707    6.1150    0.0000 H   0  0  0  0  0  0  0  0  0  0  0  0
    1.8456    4.3478    0.0000 H   0  0  0  0  0  0  0  0  0  0  0  0
   -0.1528    5.4487    0.0000 H   0  0  0  0  0  0  0  0  0  0  0  0
    1.3570    3.4307    0.0000 H   0  0  0  0  0  0  0  0  0  0  0  0
    1.8302   -1.1491    0.0000 H   0  0  0  0  0  0  0  0  0  0  0  0
    3.3074    0.8886    0.0000 H   0  0  0  0  0  0  0  0  0  0  0  0
   -0.4330   -2.2500    0.0000 H   0  0  0  0  0  0  0  0  0  0  0  0
   -2.0182   -1.4724    0.0000 H   0  0  0  0  0  0  0  0  0  0  0  0
   -3.0931   -1.3375    0.0000 H   0  0  0  0  0  0  0  0  0  0  0  0
   -4.5229   -0.5932    0.0000 H   0  0  0  0  0  0  0  0  0  0  0  0
   -5.6376    0.4105    0.0000 H   0  0  0  0  0  0  0  0  0  0  0  0
   -5.9495    1.8777    0.0000 H   0  0  0  0  0  0  0  0  0  0  0  0
   -5.8792    3.4880    0.0000 H   0  0  0  0  0  0  0  0  0  0  0  0
   -5.5019    4.3355    0.0000 H   0  0  0  0  0  0  0  0  0  0  0  0
   -4.3522    5.4652    0.0000 H   0  0  0  0  0  0  0  0  0  0  0  0
   -2.6628    3.2501    0.0000 H   0  0  0  0  0  0  0  0  0  0  0  0
   -4.0763    6.3966    0.0000 H   0  0  0  0  0  0  0  0  0  0  0  0
   -0.9279    7.7578    0.0000 H   0  0  0  0  0  0  0  0  0  0  0  0
   -3.9195    7.8884    0.0000 H   0  0  0  0  0  0  0  0  0  0  0  0
   -3.7627    9.3802    0.0000 H   0  0  0  0  0  0  0  0  0  0  0  0
   -0.7791    9.0666    0.0000 H   0  0  0  0  0  0  0  0  0  0  0  0
   -0.6223   10.5584    0.0000 H   0  0  0  0  0  0  0  0  0  0  0  0
   -3.6059   10.8720    0.0000 H   0  0  0  0  0  0  0  0  0  0  0  0
   -3.4491   12.3637    0.0000 H   0  0  0  0  0  0  0  0  0  0  0  0
   -0.4655   12.0501    0.0000 H   0  0  0  0  0  0  0  0  0  0  0  0
   -3.2424   14.1122    0.0000 H   0  0  0  0  0  0  0  0  0  0  0  0
    0.5346   12.5598    0.0000 H   0  0  0  0  0  0  0  0  0  0  0  0
    1.7953   14.7381    0.0000 H   0  0  0  0  0  0  0  0  0  0  0  0
    0.5102   16.6433    0.0000 H   0  0  0  0  0  0  0  0  0  0  0  0
   -1.9818   16.2905    0.0000 H   0  0  0  0  0  0  0  0  0  0  0  0
   -0.1087    6.1002    0.0000 H   0  0  0  0  0  0  0  0  0  0  0  0
   -0.7552    7.5446    0.0000 H   0  0  0  0  0  0  0  0  0  0  0  0
   -2.6678    5.0795    0.0000 H   0  0  0  0  0  0  0  0  0  0  0  0
  1  2  1  0
  2  3  1  0
  3  4  1  0
  4  5  1  0
  5  6  1  0
  5  7  1  0
  7  8  1  0
  8  9  1  0
  9 10  1  0
 10 11  1  0
 11 12  1  0
 12 13  1  0
 13 14  1  0
 14 15  1  0
 15 16  1  0
 16 17  1  0
 17 18  1  0
 18 19  1  0
 19 20  1  0
 20 21  1  0
 21 22  1  0
 14 23  1  0
 23 24  1  0
 24  2  1  0
  7  4  1  0
 24 13  1  0
  8  4  1  0
 22 19  1  0
 22 20  1  0
  1 25  1  0
  1 26  1  0
  1 27  1  0
  2 28  1  0
  5 29  1  0
  6 30  1  0
  7 31  1  0
  8 32  1  0
  9 33  1  0
  9 34  1  0
 10 35  1  0
 11 36  1  0
 11 37  1  0
 12 38  1  0
 12 39  1  0
 13 40  1  0
 14 41  1  0
 15 42  1  0
 15 43  1  0
 16 44  1  0
 16 45  1  0
 17 46  1  0
 17 47  1  0
 18 48  1  0
 18 49  1  0
 19 50  1  0
 20 51  1  0
 21 52  1  0
 21 53  1  0
 22 54  1  0
 23 55  1  0
 23 56  1  0
 24 57  1  0
M  END
$$$$
