
     RDKit          2D

 94103  0  0  0  0  0  0  0  0999 V2000
   -2.0829    3.1309    0.0000 C   0  0  0  0  0  0  0  0  0  0  0  0
   -1.6946    1.6820    0.0000 C   0  0  0  0  0  0  0  0  0  0  0  0
   -2.7553    0.6213    0.0000 C   0  0  0  0  0  0  0  0  0  0  0  0
   -3.8160   -0.4393    0.0000 C   0  0  0  0  0  0  0  0  0  0  0  0
   -4.8766   -1.5000    0.0000 C   0  0  0  0  0  0  0  0  0  0  0  0
   -1.6946   -0.4393    0.0000 C   0  0  0  0  0  0  0  0  0  0  0  0
   -0.6340   -1.5000    0.0000 C   0  0  0  0  0  0  0  0  0  0  0  0
   -0.6340   -3.0000    0.0000 C   0  0  0  0  0  0  0  0  0  0  0  0
    0.8660   -3.0000    0.0000 C   0  0  0  0  0  0  0  0  0  0  0  0
    0.8660   -1.5000    0.0000 C   0  0  0  0  0  0  0  0  0  0  0  0
    0.8660    0.0000    0.0000 C   0  0  0  0  0  0  0  0  0  0  0  0
    0.8660    1.5000    0.0000 C   0  0  0  0  0  0  0  0  0  0  0  0
    2.3660    0.0000    0.0000 C   0  0  0  0  0  0  0  0  0  0  0  0
    2.3660    1.5000    0.0000 N   0  0  0  0  0  0  0  0  0  0  0  0
    3.8660    1.5000    0.0000 C   0  0  0  0  0  0  0  0  0  0  0  0
    3.8660   -0.0000    0.0000 C   0  0  0  0  0  0  0  0  0  0  0  0
    4.9267   -1.0607    0.0000 C   0  0  0  0  0  0  0  0  0  0  0  0
    5.9873   -2.1213    0.0000 O   0  0  0  0  0  0  0  0  0  0  0  0
    7.4362   -1.7331    0.0000 C   0  0  0  0  0  0  0  0  0  0  0  0
    2.8610    0.4950    0.0000 C   0  0  0  0  0  0  0  0  0  0  0  0
    0.8660    0.0000    0.0000 N   0  0  0  0  0  0  0  0  0  0  0  0
   -0.4330    0.7500    0.0000 C   0  0  0  0  0  0  0  0  0  0  0  0
   -1.9102    1.0105    0.0000 C   0  0  0  0  0  0  0  0  0  0  0  0
   -3.2093    1.7605    0.0000 C   0  0  0  0  0  0  0  0  0  0  0  0
   -3.2093    3.2605    0.0000 C   0  0  0  0  0  0  0  0  0  0  0  0
   -4.6865    3.5209    0.0000 O   0  0  0  0  0  0  0  0  0  0  0  0
   -1.9102    2.5105    0.0000 N   0  0  0  0  0  0  0  0  0  0  0  0
   -0.4330   -0.7500    0.0000 C   0  0  0  0  0  0  0  0  0  0  0  0
   -1.8819   -1.1382    0.0000 C   0  0  0  0  0  0  0  0  0  0  0  0
   -1.4937   -2.5871    0.0000 C   0  0  0  0  0  0  0  0  0  0  0  0
   -0.0448   -2.1989    0.0000 C   0  0  0  0  0  0  0  0  0  0  0  0
    1.4041   -1.8107    0.0000 C   0  0  0  0  0  0  0  0  0  0  0  0
    2.8984   -1.9414    0.0000 C   0  0  0  0  0  0  0  0  0  0  0  0
    3.5323   -3.3009    0.0000 C   0  0  0  0  0  0  0  0  0  0  0  0
    2.0380   -3.1701    0.0000 C   0  0  0  0  0  0  0  0  0  0  0  0
    1.1777   -4.3988    0.0000 C   0  0  0  0  0  0  0  0  0  0  0  0
    0.3173   -5.6276    0.0000 N   0  0  0  0  0  0  0  0  0  0  0  0
    0.9512   -6.9870    0.0000 C   0  0  0  0  0  0  0  0  0  0  0  0
    0.8660   -1.5000    0.0000 N   0  0  0  0  0  0  0  0  0  0  0  0
    1.9267   -0.4393    0.0000 C   0  0  0  0  0  0  0  0  0  0  0  0
    2.9873    0.6213    0.0000 C   0  0  0  0  0  0  0  0  0  0  0  0
    0.8660    0.6213    0.0000 Cl  0  0  0  0  0  0  0  0  0  0  0  0
   -1.0222    4.1915    0.0000 H   0  0  0  0  0  0  0  0  0  0  0  0
   -3.3948    3.8582    0.0000 H   0  0  0  0  0  0  0  0  0  0  0  0
   -0.2331    2.0196    0.0000 H   0  0  0  0  0  0  0  0  0  0  0  0
   -4.0411    1.3938    0.0000 H   0  0  0  0  0  0  0  0  0  0  0  0
   -4.9980    0.4841    0.0000 H   0  0  0  0  0  0  0  0  0  0  0  0
   -3.0435   -1.7251    0.0000 H   0  0  0  0  0  0  0  0  0  0  0  0
   -5.9373   -2.5607    0.0000 H   0  0  0  0  0  0  0  0  0  0  0  0
   -5.9373   -0.4393    0.0000 H   0  0  0  0  0  0  0  0  0  0  0  0
   -3.8160   -2.5607    0.0000 H   0  0  0  0  0  0  0  0  0  0  0  0
   -1.0846    0.9310    0.0000 H   0  0  0  0  0  0  0  0  0  0  0  0
   -2.7553   -1.5000    0.0000 H   0  0  0  0  0  0  0  0  0  0  0  0
   -0.4511   -4.4888    0.0000 H   0  0  0  0  0  0  0  0  0  0  0  0
   -2.0343   -3.5377    0.0000 H   0  0  0  0  0  0  0  0  0  0  0  0
    1.9267   -4.0607    0.0000 H   0  0  0  0  0  0  0  0  0  0  0  0
   -0.4583   -2.2044    0.0000 H   0  0  0  0  0  0  0  0  0  0  0  0
   -0.6228    0.1828    0.0000 H   0  0  0  0  0  0  0  0  0  0  0  0
    0.8660    3.0000    0.0000 H   0  0  0  0  0  0  0  0  0  0  0  0
   -0.4583    2.2044    0.0000 H   0  0  0  0  0  0  0  0  0  0  0  0
    2.2664    2.0377    0.0000 H   0  0  0  0  0  0  0  0  0  0  0  0
    2.7290   -1.4554    0.0000 H   0  0  0  0  0  0  0  0  0  0  0  0
    5.3660    1.5000    0.0000 H   0  0  0  0  0  0  0  0  0  0  0  0
    3.8660    3.0000    0.0000 H   0  0  0  0  0  0  0  0  0  0  0  0
    5.9873   -0.0000    0.0000 H   0  0  0  0  0  0  0  0  0  0  0  0
    3.8660   -2.1213    0.0000 H   0  0  0  0  0  0  0  0  0  0  0  0
    8.8851   -1.3449    0.0000 H   0  0  0  0  0  0  0  0  0  0  0  0
    7.8245   -3.1820    0.0000 H   0  0  0  0  0  0  0  0  0  0  0  0
    7.0480   -0.2842    0.0000 H   0  0  0  0  0  0  0  0  0  0  0  0
    3.0704   -1.3243    0.0000 H   0  0  0  0  0  0  0  0  0  0  0  0
    0.0800    2.1595    0.0000 H   0  0  0  0  0  0  0  0  0  0  0  0
   -2.8944   -0.1215    0.0000 H   0  0  0  0  0  0  0  0  0  0  0  0
   -4.5900    1.1744    0.0000 H   0  0  0  0  0  0  0  0  0  0  0  0
   -2.6962    4.6700    0.0000 H   0  0  0  0  0  0  0  0  0  0  0  0
   -5.1995    4.9305    0.0000 H   0  0  0  0  0  0  0  0  0  0  0  0
   -3.1938   -1.8655    0.0000 H   0  0  0  0  0  0  0  0  0  0  0  0
   -3.0311   -0.1742    0.0000 H   0  0  0  0  0  0  0  0  0  0  0  0
   -1.2850   -4.0725    0.0000 H   0  0  0  0  0  0  0  0  0  0  0  0
   -2.9791   -2.7958    0.0000 H   0  0  0  0  0  0  0  0  0  0  0  0
    0.1639   -3.6843    0.0000 H   0  0  0  0  0  0  0  0  0  0  0  0
    1.6388   -0.3291    0.0000 H   0  0  0  0  0  0  0  0  0  0  0  0
    4.1420   -1.1027    0.0000 H   0  0  0  0  0  0  0  0  0  0  0  0
    4.9812   -2.9126    0.0000 H   0  0  0  0  0  0  0  0  0  0  0  0
    3.6631   -4.7951    0.0000 H   0  0  0  0  0  0  0  0  0  0  0  0
    2.4064   -5.2592    0.0000 H   0  0  0  0  0  0  0  0  0  0  0  0
   -0.2778   -4.0361    0.0000 H   0  0  0  0  0  0  0  0  0  0  0  0
   -1.1770   -5.4968    0.0000 H   0  0  0  0  0  0  0  0  0  0  0  0
    1.5852   -8.3465    0.0000 H   0  0  0  0  0  0  0  0  0  0  0  0
   -0.4082   -7.6210    0.0000 H   0  0  0  0  0  0  0  0  0  0  0  0
    2.3107   -6.3531    0.0000 H   0  0  0  0  0  0  0  0  0  0  0  0
    2.9873   -1.5000    0.0000 H   0  0  0  0  0  0  0  0  0  0  0  0
    4.2731    1.3938    0.0000 H   0  0  0  0  0  0  0  0  0  0  0  0
    2.3774    1.9917    0.0000 H   0  0  0  0  0  0  0  0  0  0  0  0
    4.3577    0.0113    0.0000 H   0  0  0  0  0  0  0  0  0  0  0  0
  1  2  2  3
  2  3  1  0
  3  4  1  0
  4  5  1  0
  3  6  1  0
  6  7  1  0
  7  8  1  0
  8  9  1  0
  9 10  1  0
 10 11  1  0
 11 12  1  0
 11 13  1  0
 13 14  1  0
 14 15  1  0
 15 16  1  0
 16 17  1  0
 17 18  1  0
 18 19  1  0
 16 20  1  0
 20 21  1  0
 21 22  1  0
 22 23  1  0
 23 24  1  0
 24 25  1  0
 25 26  1  0
 25 27  1  0
 22 28  1  0
 28 29  1  0
 29 30  1  0
 30 31  1  0
 31 32  1  0
 32 33  1  0
 33 34  1  0
 34 35  1  0
 35 36  1  0
 36 37  1  0
 37 38  1  0
  9 39  1  0
 39 40  1  0
 40 41  1  0
 40 42  1  0
 10  7  1  0
 16 13  1  0
 28 21  1  0
 35 32  1  0
 39  7  1  0
 20 14  1  0
 27 23  1  0
 31 28  1  0
 35 33  1  0
 27 24  1  0
  1 43  1  0
  1 44  1  0
  2 45  1  0
  3 46  1  0
  4 47  1  0
  4 48  1  0
  5 49  1  0
  5 50  1  0
  5 51  1  0
  6 52  1  0
  6 53  1  0
  8 54  1  0
  8 55  1  0
  9 56  1  0
 10 57  1  0
 11 58  1  0
 12 59  1  0
 12 60  1  0
 12 61  1  0
 13 62  1  0
 15 63  1  0
 15 64  1  0
 17 65  1  0
 17 66  1  0
 19 67  1  0
 19 68  1  0
 19 69  1  0
 20 70  1  0
 22 71  1  0
 23 72  1  0
 24 73  1  0
 25 74  1  0
 26 75  1  0
 29 76  1  0
 29 77  1  0
 30 78  1  0
 30 79  1  0
 31 80  1  0
 32 81  1  0
 33 82  1  0
 34 83  1  0
 34 84  1  0
 36 85  1  0
 36 86  1  0
 37 87  1  0
 38 88  1  0
 38 89  1  0
 38 90  1  0
 40 91  1  0
 41 92  1  0
 41 93  1  0
 41 94  1  0
M  END
$$$$
