
     RDKit          2D

 29 31  0  0  0  0  0  0  0  0999 V2000
   -8.1935   -4.8253    0.0000 C   0  0  0  0  0  0  0  0  0  0  0  0
   -7.4435   -3.5262    0.0000 C   0  0  0  0  0  0  0  0  0  0  0  0
   -8.5926   -2.5621    0.0000 C   0  0  0  0  0  0  0  0  0  0  0  0
   -9.3426   -1.2630    0.0000 I   0  0  0  0  0  0  0  0  0  0  0  0
   -7.1830   -2.0490    0.0000 C   0  0  0  0  0  0  0  0  0  0  0  0
   -5.6830   -2.0490    0.0000 O   0  0  0  0  0  0  0  0  0  0  0  0
   -4.9330   -0.7500    0.0000 C   0  0  0  0  0  0  0  0  0  0  0  0
   -5.6830    0.5490    0.0000 O   0  0  0  0  0  0  0  0  0  0  0  0
   -3.4330   -0.7500    0.0000 C   0  0  0  0  0  0  0  0  0  0  0  0
   -1.9330   -0.7500    0.0000 C   0  0  0  0  0  0  0  0  0  0  0  0
   -1.9330    0.7500    0.0000 C   0  0  0  0  0  0  0  0  0  0  0  0
   -0.4330    0.7500    0.0000 C   0  0  0  0  0  0  0  0  0  0  0  0
    0.8660    0.0000    0.0000 C   0  0  0  0  0  0  0  0  0  0  0  0
   -0.4330   -0.7500    0.0000 C   0  0  0  0  0  0  0  0  0  0  0  0
   -8.9435   -6.1243    0.0000 H   0  0  0  0  0  0  0  0  0  0  0  0
   -6.8944   -5.5753    0.0000 H   0  0  0  0  0  0  0  0  0  0  0  0
   -9.4362   -4.2978    0.0000 H   0  0  0  0  0  0  0  0  0  0  0  0
   -6.0339   -4.0393    0.0000 H   0  0  0  0  0  0  0  0  0  0  0  0
   -9.7248   -3.2973    0.0000 H   0  0  0  0  0  0  0  0  0  0  0  0
   -7.4435   -0.5718    0.0000 H   0  0  0  0  0  0  0  0  0  0  0  0
   -3.5410    0.1291    0.0000 H   0  0  0  0  0  0  0  0  0  0  0  0
   -3.4330   -2.2500    0.0000 H   0  0  0  0  0  0  0  0  0  0  0  0
   -1.9330   -2.2500    0.0000 H   0  0  0  0  0  0  0  0  0  0  0  0
   -1.9330    2.2500    0.0000 H   0  0  0  0  0  0  0  0  0  0  0  0
   -2.8121    0.8580    0.0000 H   0  0  0  0  0  0  0  0  0  0  0  0
   -0.0448    2.1989    0.0000 H   0  0  0  0  0  0  0  0  0  0  0  0
    1.8302    1.1491    0.0000 H   0  0  0  0  0  0  0  0  0  0  0  0
    1.8302   -1.1491    0.0000 H   0  0  0  0  0  0  0  0  0  0  0  0
   -0.0448   -2.1989    0.0000 H   0  0  0  0  0  0  0  0  0  0  0  0
  1  2  1  0
  2  3  1  0
  3  4  1  0
  3  5  1  0
  5  6  1  0
  6  7  1  0
  7  8  2  0
  7  9  1  0
  9 10  1  0
 10 11  1  0
 11 12  1  0
 12 13  1  0
 13 14  1  0
  5  2  1  0
 14 10  1  0
 14 12  1  0
  1 15  1  0
  1 16  1  0
  1 17  1  0
  2 18  1  1
  3 19  1  6
  5 20  1  1
  9 21  1  0
  9 22  1  0
 10 23  1  6
 11 24  1  0
 11 25  1  0
 12 26  1  1
 13 27  1  0
 13 28  1  0
 14 29  1  1
M  END
$$$$
