
     RDKit          2D

 70 78  0  0  0  0  0  0  0  0999 V2000
   -7.7939   -2.8216    0.0000 C   0  0  0  0  0  0  0  0  0  0  0  0
   -6.9243   -1.5994    0.0000 C   0  0  0  0  0  0  0  0  0  0  0  0
   -6.0548   -0.3771    0.0000 O   0  0  0  0  0  0  0  0  0  0  0  0
   -6.6785    0.9870    0.0000 C   0  0  0  0  0  0  0  0  0  0  0  0
   -8.0427    0.3633    0.0000 C   0  0  0  0  0  0  0  0  0  0  0  0
   -9.4069   -0.2604    0.0000 C   0  0  0  0  0  0  0  0  0  0  0  0
  -10.7710   -0.8842    0.0000 C   0  0  0  0  0  0  0  0  0  0  0  0
  -11.3948    0.4800    0.0000 O   0  0  0  0  0  0  0  0  0  0  0  0
  -12.1352   -1.5079    0.0000 C   0  0  0  0  0  0  0  0  0  0  0  0
  -13.4994   -2.1317    0.0000 C   0  0  0  0  0  0  0  0  0  0  0  0
  -14.8635   -2.7554    0.0000 C   0  0  0  0  0  0  0  0  0  0  0  0
  -16.2277   -3.3792    0.0000 F   0  0  0  0  0  0  0  0  0  0  0  0
  -14.1231   -0.7675    0.0000 C   0  0  0  0  0  0  0  0  0  0  0  0
  -15.1758    0.3011    0.0000 C   0  0  0  0  0  0  0  0  0  0  0  0
  -15.5749   -1.1449    0.0000 C   0  0  0  0  0  0  0  0  0  0  0  0
   -5.3144    1.6108    0.0000 C   0  0  0  0  0  0  0  0  0  0  0  0
   -4.6906    0.2466    0.0000 C   0  0  0  0  0  0  0  0  0  0  0  0
   -3.2389    0.6240    0.0000 C   0  0  0  0  0  0  0  0  0  0  0  0
   -3.6379   -0.8220    0.0000 C   0  0  0  0  0  0  0  0  0  0  0  0
   -2.7563   -2.0355    0.0000 C   0  0  0  0  0  0  0  0  0  0  0  0
   -2.0653   -3.3669    0.0000 C   0  0  0  0  0  0  0  0  0  0  0  0
   -3.5638   -3.2996    0.0000 N   0  0  0  0  0  0  0  0  0  0  0  0
   -1.2578   -2.1028    0.0000 C   0  0  0  0  0  0  0  0  0  0  0  0
   -0.4330   -0.7500    0.0000 C   0  0  0  0  0  0  0  0  0  0  0  0
   -1.8596   -1.2135    0.0000 C   0  0  0  0  0  0  0  0  0  0  0  0
   -2.7413    0.0000    0.0000 C   0  0  0  0  0  0  0  0  0  0  0  0
   -1.8596    1.2135    0.0000 Si  0  0  0  0  0  4  0  0  0  0  0  0
   -0.4330    0.7500    0.0000 C   0  0  0  0  0  0  0  0  0  0  0  0
    0.8660    0.0000    0.0000 C   0  0  0  0  0  0  0  0  0  0  0  0
   -6.6785    0.9870    0.0000 C   0  0  0  0  0  0  0  0  0  0  0  0
   -7.3023    2.3512    0.0000 O   0  0  0  0  0  0  0  0  0  0  0  0
   -5.9381    2.9749    0.0000 C   0  0  0  0  0  0  0  0  0  0  0  0
   -8.6634   -4.0439    0.0000 H   0  0  0  0  0  0  0  0  0  0  0  0
   -6.5716   -3.6912    0.0000 H   0  0  0  0  0  0  0  0  0  0  0  0
   -9.1130   -2.1076    0.0000 H   0  0  0  0  0  0  0  0  0  0  0  0
   -8.2435   -0.8853    0.0000 H   0  0  0  0  0  0  0  0  0  0  0  0
   -5.7021   -2.4689    0.0000 H   0  0  0  0  0  0  0  0  0  0  0  0
   -7.6138    2.1597    0.0000 H   0  0  0  0  0  0  0  0  0  0  0  0
   -8.6665    1.7275    0.0000 H   0  0  0  0  0  0  0  0  0  0  0  0
   -7.9494   -1.1338    0.0000 H   0  0  0  0  0  0  0  0  0  0  0  0
   -8.9541   -1.6905    0.0000 H   0  0  0  0  0  0  0  0  0  0  0  0
  -10.0306    1.1037    0.0000 H   0  0  0  0  0  0  0  0  0  0  0  0
  -10.1473   -2.2484    0.0000 H   0  0  0  0  0  0  0  0  0  0  0  0
  -12.8093    0.9790    0.0000 H   0  0  0  0  0  0  0  0  0  0  0  0
  -11.5115   -2.8721    0.0000 H   0  0  0  0  0  0  0  0  0  0  0  0
  -12.7590   -0.1438    0.0000 H   0  0  0  0  0  0  0  0  0  0  0  0
  -12.8756   -3.4958    0.0000 H   0  0  0  0  0  0  0  0  0  0  0  0
  -14.2398   -4.1196    0.0000 H   0  0  0  0  0  0  0  0  0  0  0  0
  -15.7988   -1.5827    0.0000 H   0  0  0  0  0  0  0  0  0  0  0  0
  -13.1306    0.3572    0.0000 H   0  0  0  0  0  0  0  0  0  0  0  0
  -14.3063    1.5233    0.0000 H   0  0  0  0  0  0  0  0  0  0  0  0
  -16.5305    0.9451    0.0000 H   0  0  0  0  0  0  0  0  0  0  0  0
  -17.0681   -1.0030    0.0000 H   0  0  0  0  0  0  0  0  0  0  0  0
  -15.8207   -2.6246    0.0000 H   0  0  0  0  0  0  0  0  0  0  0  0
   -5.5386   -0.9907    0.0000 H   0  0  0  0  0  0  0  0  0  0  0  0
   -3.7237    2.0435    0.0000 H   0  0  0  0  0  0  0  0  0  0  0  0
   -4.7822   -1.7919    0.0000 H   0  0  0  0  0  0  0  0  0  0  0  0
   -1.3743   -4.6982    0.0000 H   0  0  0  0  0  0  0  0  0  0  0  0
   -1.5992   -2.6908    0.0000 H   0  0  0  0  0  0  0  0  0  0  0  0
   -3.3015   -1.6269    0.0000 H   0  0  0  0  0  0  0  0  0  0  0  0
   -3.5800   -1.2436    0.0000 H   0  0  0  0  0  0  0  0  0  0  0  0
   -4.0657    0.7041    0.0000 H   0  0  0  0  0  0  0  0  0  0  0  0
   -2.3231    2.6401    0.0000 H   0  0  0  0  0  0  0  0  0  0  0  0
    0.1771    2.1203    0.0000 H   0  0  0  0  0  0  0  0  0  0  0  0
    1.8302    1.1491    0.0000 H   0  0  0  0  0  0  0  0  0  0  0  0
    1.8302   -1.1491    0.0000 H   0  0  0  0  0  0  0  0  0  0  0  0
   -8.1531    0.7119    0.0000 H   0  0  0  0  0  0  0  0  0  0  0  0
   -5.8932   -0.2909    0.0000 H   0  0  0  0  0  0  0  0  0  0  0  0
   -4.5740    3.5987    0.0000 H   0  0  0  0  0  0  0  0  0  0  0  0
   -6.5619    4.3391    0.0000 H   0  0  0  0  0  0  0  0  0  0  0  0
  1  2  1  0
  2  3  1  0
  3  4  1  0
  4  5  1  0
  5  6  1  0
  6  7  1  0
  7  8  1  0
  7  9  1  0
  9 10  1  0
 10 11  1  0
 11 12  1  0
 10 13  1  0
 13 14  1  0
 14 15  1  0
  4 16  1  0
 16 17  1  0
 17 18  1  0
 18 19  1  0
 19 20  1  0
 20 21  1  0
 21 22  1  0
 22 23  1  0
 23 24  1  0
 24 25  1  0
 25 26  1  0
 26 27  1  0
 27 28  1  0
 28 29  1  0
 16 30  1  0
 30 31  1  0
 31 32  1  0
 15 13  1  0
 32 16  1  0
 19 17  1  0
 22 20  1  0
 28 24  1  0
 27 18  1  0
 23 20  1  0
 29 24  1  0
 23 21  1  0
  1 33  1  0
  1 34  1  0
  1 35  1  0
  2 36  1  0
  2 37  1  0
  4 38  1  0
  5 39  1  0
  5 40  1  0
  6 41  1  0
  6 42  1  0
  7 43  1  0
  8 44  1  0
  9 45  1  0
  9 46  1  0
 10 47  1  0
 11 48  1  0
 11 49  1  0
 13 50  1  0
 14 51  1  0
 14 52  1  0
 15 53  1  0
 15 54  1  0
 17 55  1  0
 18 56  1  0
 19 57  1  0
 21 58  1  0
 25 59  1  0
 25 60  1  0
 26 61  1  0
 26 62  1  0
 27 63  1  0
 28 64  1  0
 29 65  1  0
 29 66  1  0
 30 67  1  0
 30 68  1  0
 32 69  1  0
 32 70  1  0
M  END
$$$$
