
     RDKit          3D

 16 21  0  0  0  0  0  0  0  0999 V2000
   23.2123  -22.9168  -18.4837 N   0  0  0  0  0  0  0  0  0  0  0  0
   22.8966  -24.1479  -18.2802 C   0  0  0  0  0  0  0  0  0  0  0  0
   23.6944  -22.3957  -19.7507 C   0  0  0  0  0  0  0  0  0  0  0  0
   22.8391  -22.4423  -20.9824 C   0  0  0  0  0  0  0  0  0  0  0  0
   24.0440  -20.9392  -19.6585 C   0  0  0  0  0  0  0  0  0  0  0  0
   23.0722  -25.2210  -19.3163 C   0  0  0  0  0  0  0  0  0  0  0  0
   22.9139  -23.8520  -21.5435 C   0  0  0  0  0  0  0  0  0  0  0  0
   22.5970  -20.5020  -19.7320 N   0  0  0  0  0  0  0  0  0  0  0  0
   22.1606  -19.9999  -21.0426 C   0  0  0  0  0  0  0  0  0  0  0  0
   21.8339  -21.3984  -20.6557 C   0  0  0  0  0  0  0  0  0  0  0  0
   25.0739  -22.1893  -19.9636 C   0  0  0  0  0  0  0  0  0  0  0  0
   24.4492  -24.0824  -21.8862 C   0  0  0  0  0  0  0  0  0  0  0  0
   25.4170  -22.9462  -21.3071 C   0  0  0  0  0  0  0  0  0  0  0  0
   22.3018  -24.9351  -20.6204 C   0  0  0  0  0  0  0  0  0  0  0  0
   26.1584  -22.0961  -22.3329 C   0  0  0  0  0  0  0  0  0  0  0  0
   26.9017  -23.1716  -21.5564 C   0  0  0  0  0  0  0  0  0  0  0  0
  2  1  2  0
  3  1  1  0
  4  3  1  0
  5  3  1  0
  6  2  1  0
  7  4  1  0
  8  5  1  0
  9  8  1  0
 10  4  1  0
 10  8  1  0
 10  9  1  0
 11  3  1  0
 11  5  1  0
 12  7  1  0
 13 11  1  0
 13 12  1  0
 14  6  1  0
 14  7  1  0
 15 13  1  0
 16 13  1  0
 16 15  1  0
M  END
$$$$
