
     RDKit          2D

 32 32  0  0  0  0  0  0  0  0999 V2000
   11.1446    2.1448    0.0000 C   0  0  0  0  0  0  0  0  0  0  0  0
    9.6674    2.4053    0.0000 C   0  0  0  0  0  0  0  0  0  0  0  0
    8.7032    1.2562    0.0000 C   0  0  0  0  0  0  0  0  0  0  0  0
    7.2260    1.5167    0.0000 C   0  0  0  0  0  0  0  0  0  0  0  0
    6.2618    0.3676    0.0000 C   0  0  0  0  0  0  0  0  0  0  0  0
    4.7846    0.6281    0.0000 C   0  0  0  0  0  0  0  0  0  0  0  0
    3.3074    0.8886    0.0000 C   0  0  0  0  0  0  0  0  0  0  0  0
    1.8302    1.1491    0.0000 B   0  0  0  0  0  0  0  0  0  0  0  0
    1.3172    2.5586    0.0000 O   0  0  0  0  0  0  0  0  0  0  0  0
    0.8660    0.0000    0.0000 C   0  0  0  0  0  0  0  0  0  0  0  0
    1.8302   -1.1491    0.0000 O   0  0  0  0  0  0  0  0  0  0  0  0
    1.3172   -2.5586    0.0000 O   0  0  0  0  0  0  0  0  0  0  0  0
   -0.4330    0.7500    0.0000 C   0  0  0  0  0  0  0  0  0  0  0  0
   -0.4330   -0.7500    0.0000 C   0  0  0  0  0  0  0  0  0  0  0  0
    0.0800   -2.1595    0.0000 O   0  0  0  0  0  0  0  0  0  0  0  0
   12.6218    1.8844    0.0000 H   0  0  0  0  0  0  0  0  0  0  0  0
   11.4051    3.6221    0.0000 H   0  0  0  0  0  0  0  0  0  0  0  0
   10.8842    0.6676    0.0000 H   0  0  0  0  0  0  0  0  0  0  0  0
    9.1544    3.8148    0.0000 H   0  0  0  0  0  0  0  0  0  0  0  0
    9.2163   -0.1533    0.0000 H   0  0  0  0  0  0  0  0  0  0  0  0
    6.7130    2.9263    0.0000 H   0  0  0  0  0  0  0  0  0  0  0  0
    6.7749   -1.0419    0.0000 H   0  0  0  0  0  0  0  0  0  0  0  0
    5.0451    2.1053    0.0000 H   0  0  0  0  0  0  0  0  0  0  0  0
    4.5242   -0.8491    0.0000 H   0  0  0  0  0  0  0  0  0  0  0  0
    3.5679    2.3658    0.0000 H   0  0  0  0  0  0  0  0  0  0  0  0
    3.0469   -0.5886    0.0000 H   0  0  0  0  0  0  0  0  0  0  0  0
    2.2814    3.7077    0.0000 H   0  0  0  0  0  0  0  0  0  0  0  0
    2.2814   -3.7077    0.0000 H   0  0  0  0  0  0  0  0  0  0  0  0
   -1.9102    1.0105    0.0000 H   0  0  0  0  0  0  0  0  0  0  0  0
    0.0800    2.1595    0.0000 H   0  0  0  0  0  0  0  0  0  0  0  0
   -1.9102   -1.0105    0.0000 H   0  0  0  0  0  0  0  0  0  0  0  0
   -0.8842   -3.3086    0.0000 H   0  0  0  0  0  0  0  0  0  0  0  0
  1  2  1  0
  2  3  2  3
  3  4  1  0
  4  5  2  3
  5  6  1  0
  6  7  1  0
  7  8  1  0
  8  9  1  0
  8 10  1  0
 10 11  1  1
 11 12  1  0
 10 13  1  0
 13 14  1  0
 14 15  1  0
 14 10  1  0
  1 16  1  0
  1 17  1  0
  1 18  1  0
  2 19  1  0
  3 20  1  0
  4 21  1  0
  5 22  1  0
  6 23  1  0
  6 24  1  0
  7 25  1  0
  7 26  1  0
  9 27  1  0
 12 28  1  0
 13 29  1  0
 13 30  1  0
 14 31  1  6
 15 32  1  0
M  END
$$$$
