
     RDKit          2D

100111  0  0  0  0  0  0  0  0999 V2000
  -10.8042   -0.6058    0.0000 C   0  0  0  0  0  0  0  0  0  0  0  0
  -10.5030    0.8637    0.0000 C   0  0  0  0  0  0  0  0  0  0  0  0
  -10.2019    2.3332    0.0000 C   0  0  0  0  0  0  0  0  0  0  0  0
   -9.9008    3.8026    0.0000 C   0  0  0  0  0  0  0  0  0  0  0  0
   -9.5996    5.2721    0.0000 C   0  0  0  0  0  0  0  0  0  0  0  0
   -9.2985    6.7415    0.0000 C   0  0  0  0  0  0  0  0  0  0  0  0
  -11.0691    5.5732    0.0000 C   0  0  0  0  0  0  0  0  0  0  0  0
  -12.3469    6.3588    0.0000 C   0  0  0  0  0  0  0  0  0  0  0  0
  -11.0277    7.0727    0.0000 C   0  0  0  0  0  0  0  0  0  0  0  0
   -8.4313    3.5015    0.0000 C   0  0  0  0  0  0  0  0  0  0  0  0
   -8.7324    2.0320    0.0000 C   0  0  0  0  0  0  0  0  0  0  0  0
   -7.2630    1.7309    0.0000 C   0  0  0  0  0  0  0  0  0  0  0  0
   -5.7935    1.4297    0.0000 C   0  0  0  0  0  0  0  0  0  0  0  0
   -4.9674    0.1777    0.0000 C   0  0  0  0  0  0  0  0  0  0  0  0
   -3.4979   -0.1234    0.0000 C   0  0  0  0  0  0  0  0  0  0  0  0
   -2.7479   -1.4224    0.0000 C   0  0  0  0  0  0  0  0  0  0  0  0
   -2.7479   -2.9224    0.0000 C   0  0  0  0  0  0  0  0  0  0  0  0
   -1.2479   -2.9224    0.0000 C   0  0  0  0  0  0  0  0  0  0  0  0
   -1.2479   -4.4224    0.0000 N   0  0  0  0  0  0  0  0  0  0  0  0
   -2.7479   -4.4224    0.0000 O   0  0  0  0  0  0  0  0  0  0  0  0
   -1.2990   -1.8107    0.0000 O   0  0  0  0  0  0  0  0  0  0  0  0
   -0.0000   -1.0607    0.0000 C   0  0  0  0  0  0  0  0  0  0  0  0
    1.0607    0.0000    0.0000 C   0  0  0  0  0  0  0  0  0  0  0  0
    0.0000    1.0607    0.0000 C   0  0  0  0  0  0  0  0  0  0  0  0
    0.0000    2.5607    0.0000 C   0  0  0  0  0  0  0  0  0  0  0  0
   -1.0607    0.0000    0.0000 O   0  0  0  0  0  0  0  0  0  0  0  0
   -1.5000    1.5374    0.0000 C   0  0  0  0  0  0  0  0  0  0  0  0
   -0.7407    0.2222    0.0000 Mg  0  0  0  0  0  2  0  0  0  0  0  0
   -0.7593    0.2546    0.0000 C   0  0  0  0  0  0  0  0  0  0  0  0
   -1.2395   -2.5379    0.0000 C   0  0  0  0  0  0  0  0  0  0  0  0
   -0.9791   -4.0151    0.0000 C   0  0  0  0  0  0  0  0  0  0  0  0
   -0.7186   -5.4923    0.0000 C   0  0  0  0  0  0  0  0  0  0  0  0
   -2.1958   -5.7528    0.0000 C   0  0  0  0  0  0  0  0  0  0  0  0
    0.7586   -5.2318    0.0000 C   0  0  0  0  0  0  0  0  0  0  0  0
    2.2358   -4.9714    0.0000 O   0  0  0  0  0  0  0  0  0  0  0  0
    1.0191   -6.7090    0.0000 C   0  0  0  0  0  0  0  0  0  0  0  0
    0.5061   -8.1186    0.0000 C   0  0  0  0  0  0  0  0  0  0  0  0
   -0.4581   -6.9695    0.0000 C   0  0  0  0  0  0  0  0  0  0  0  0
   -3.1097    1.3255    0.0000 C   0  0  0  0  0  0  0  0  0  0  0  0
   -3.1830    2.8288    0.0000 N   0  0  0  0  0  0  0  0  0  0  0  0
   -2.6089    4.2146    0.0000 C   0  0  0  0  0  0  0  0  0  0  0  0
   -4.2404    3.7253    0.0000 N   0  0  0  0  0  0  0  0  0  0  0  0
   -5.4924    2.8992    0.0000 C   0  0  0  0  0  0  0  0  0  0  0  0
   -6.9618    3.2003    0.0000 C   0  0  0  0  0  0  0  0  0  0  0  0
   -1.6958    3.0246    0.0000 C   0  0  0  0  0  0  0  0  0  0  0  0
  -11.1053   -2.0752    0.0000 H   0  0  0  0  0  0  0  0  0  0  0  0
  -12.2736   -0.3046    0.0000 H   0  0  0  0  0  0  0  0  0  0  0  0
   -9.3347   -0.9069    0.0000 H   0  0  0  0  0  0  0  0  0  0  0  0
   -9.0812    0.3857    0.0000 H   0  0  0  0  0  0  0  0  0  0  0  0
  -11.9725    1.1648    0.0000 H   0  0  0  0  0  0  0  0  0  0  0  0
   -8.8490    1.6854    0.0000 H   0  0  0  0  0  0  0  0  0  0  0  0
  -11.6714    2.6343    0.0000 H   0  0  0  0  0  0  0  0  0  0  0  0
  -11.3960    3.9224    0.0000 H   0  0  0  0  0  0  0  0  0  0  0  0
   -8.1044    5.1523    0.0000 H   0  0  0  0  0  0  0  0  0  0  0  0
   -8.9973    8.2110    0.0000 H   0  0  0  0  0  0  0  0  0  0  0  0
   -7.8290    6.4404    0.0000 H   0  0  0  0  0  0  0  0  0  0  0  0
  -10.6514    7.3893    0.0000 H   0  0  0  0  0  0  0  0  0  0  0  0
  -11.7867    4.2560    0.0000 H   0  0  0  0  0  0  0  0  0  0  0  0
  -13.3425    5.2368    0.0000 H   0  0  0  0  0  0  0  0  0  0  0  0
  -13.2790    7.5340    0.0000 H   0  0  0  0  0  0  0  0  0  0  0  0
  -11.5016    8.4958    0.0000 H   0  0  0  0  0  0  0  0  0  0  0  0
   -9.6411    7.6448    0.0000 H   0  0  0  0  0  0  0  0  0  0  0  0
   -7.9533    4.9233    0.0000 H   0  0  0  0  0  0  0  0  0  0  0  0
   -8.8522    0.5368    0.0000 H   0  0  0  0  0  0  0  0  0  0  0  0
  -10.2311    1.9686    0.0000 H   0  0  0  0  0  0  0  0  0  0  0  0
   -7.5641    0.2614    0.0000 H   0  0  0  0  0  0  0  0  0  0  0  0
   -6.7792    0.2991    0.0000 H   0  0  0  0  0  0  0  0  0  0  0  0
   -5.0611   -1.3193    0.0000 H   0  0  0  0  0  0  0  0  0  0  0  0
   -6.3222   -0.4661    0.0000 H   0  0  0  0  0  0  0  0  0  0  0  0
   -4.8935   -0.6732    0.0000 H   0  0  0  0  0  0  0  0  0  0  0  0
   -4.1387   -1.9844    0.0000 H   0  0  0  0  0  0  0  0  0  0  0  0
   -4.2479   -2.9224    0.0000 H   0  0  0  0  0  0  0  0  0  0  0  0
    0.2409   -2.7396    0.0000 H   0  0  0  0  0  0  0  0  0  0  0  0
   -1.2479   -4.4224    0.0000 H   0  0  0  0  0  0  0  0  0  0  0  0
   -0.4754   -5.7082    0.0000 H   0  0  0  0  0  0  0  0  0  0  0  0
    2.1213    1.0607    0.0000 H   0  0  0  0  0  0  0  0  0  0  0  0
    2.1213   -1.0607    0.0000 H   0  0  0  0  0  0  0  0  0  0  0  0
    0.1828    4.0495    0.0000 H   0  0  0  0  0  0  0  0  0  0  0  0
    1.5000    2.5607    0.0000 H   0  0  0  0  0  0  0  0  0  0  0  0
   -1.4554    2.9236    0.0000 H   0  0  0  0  0  0  0  0  0  0  0  0
   -2.9918   -1.2174    0.0000 H   0  0  0  0  0  0  0  0  0  0  0  0
    0.1949   -2.0993    0.0000 H   0  0  0  0  0  0  0  0  0  0  0  0
   -2.6098   -3.1481    0.0000 H   0  0  0  0  0  0  0  0  0  0  0  0
   -2.4135   -4.4537    0.0000 H   0  0  0  0  0  0  0  0  0  0  0  0
    0.4982   -3.7546    0.0000 H   0  0  0  0  0  0  0  0  0  0  0  0
   -3.6730   -6.0132    0.0000 H   0  0  0  0  0  0  0  0  0  0  0  0
   -2.1173   -7.2507    0.0000 H   0  0  0  0  0  0  0  0  0  0  0  0
   -2.2743   -4.2548    0.0000 H   0  0  0  0  0  0  0  0  0  0  0  0
    0.8633   -3.7355    0.0000 H   0  0  0  0  0  0  0  0  0  0  0  0
    3.2000   -6.1204    0.0000 H   0  0  0  0  0  0  0  0  0  0  0  0
    2.5134   -6.8398    0.0000 H   0  0  0  0  0  0  0  0  0  0  0  0
    1.8051   -8.8686    0.0000 H   0  0  0  0  0  0  0  0  0  0  0  0
   -0.4581   -9.2676    0.0000 H   0  0  0  0  0  0  0  0  0  0  0  0
   -1.7302   -7.7644    0.0000 H   0  0  0  0  0  0  0  0  0  0  0  0
   -4.5969    1.1297    0.0000 H   0  0  0  0  0  0  0  0  0  0  0  0
   -2.8047    5.7018    0.0000 H   0  0  0  0  0  0  0  0  0  0  0  0
   -4.5245    5.1982    0.0000 H   0  0  0  0  0  0  0  0  0  0  0  0
   -5.7765    4.3721    0.0000 H   0  0  0  0  0  0  0  0  0  0  0  0
   -6.6607    4.6698    0.0000 H   0  0  0  0  0  0  0  0  0  0  0  0
   -0.3903    3.7633    0.0000 H   0  0  0  0  0  0  0  0  0  0  0  0
  1  2  1  0
  2  3  1  0
  3  4  1  0
  4  5  1  0
  5  6  1  0
  5  7  1  0
  7  8  1  0
  8  9  1  0
  4 10  1  0
 10 11  1  0
 11 12  1  0
 12 13  1  0
 13 14  1  0
 14 15  1  0
 15 16  1  0
 16 17  1  0
 17 18  1  0
 18 19  1  0
 19 20  1  0
 16 21  1  0
 21 22  1  0
 22 23  1  0
 23 24  1  0
 24 25  1  0
 24 26  1  0
 24 27  1  0
 27 28  1  0
 28 29  1  0
 29 30  1  0
 30 31  1  0
 31 32  1  0
 32 33  1  0
 32 34  1  0
 34 35  1  0
 34 36  1  0
 36 37  1  0
 37 38  1  0
 27 39  1  0
 39 40  1  0
 40 41  1  0
 41 42  1  0
 42 43  1  0
 43 44  1  0
 41 45  1  0
  9  7  1  0
 44 10  1  0
 44 12  1  0
 43 13  1  0
 39 15  1  0
 45 40  1  0
 20 17  1  0
 26 22  1  0
 45 27  1  0
 29 22  1  0
 38 32  1  0
 38 36  1  0
  1 46  1  0
  1 47  1  0
  1 48  1  0
  2 49  1  0
  2 50  1  0
  3 51  1  0
  3 52  1  0
  4 53  1  0
  5 54  1  0
  6 55  1  0
  6 56  1  0
  6 57  1  0
  7 58  1  0
  8 59  1  0
  8 60  1  0
  9 61  1  0
  9 62  1  0
 10 63  1  0
 11 64  1  0
 11 65  1  0
 12 66  1  0
 13 67  1  0
 14 68  1  0
 14 69  1  0
 15 70  1  0
 16 71  1  0
 17 72  1  0
 18 73  1  0
 18 74  1  0
 19 75  1  0
 23 76  1  0
 23 77  1  0
 25 78  1  0
 25 79  1  0
 25 80  1  0
 29 81  1  0
 30 82  1  0
 30 83  1  0
 31 84  1  0
 31 85  1  0
 33 86  1  0
 33 87  1  0
 33 88  1  0
 34 89  1  0
 35 90  1  0
 36 91  1  0
 37 92  1  0
 37 93  1  0
 38 94  1  0
 39 95  1  0
 41 96  1  0
 42 97  1  0
 43 98  1  0
 44 99  1  0
 45100  1  0
M  END
$$$$
