
     RDKit          2D

 58 61  0  0  0  0  0  0  0  0999 V2000
   -9.5263    4.5000    0.0000 C   0  0  0  0  0  0  0  0  0  0  0  0
   -8.2272    3.7500    0.0000 C   0  0  0  0  0  0  0  0  0  0  0  0
   -6.9282    3.0000    0.0000 C   0  0  0  0  0  0  0  0  0  0  0  0
   -6.1782    4.2990    0.0000 C   0  0  0  0  0  0  0  0  0  0  0  0
   -5.6292    2.2500    0.0000 C   0  0  0  0  0  0  0  0  0  0  0  0
   -5.6292    0.7500    0.0000 C   0  0  0  0  0  0  0  0  0  0  0  0
   -4.3301   -0.0000    0.0000 C   0  0  0  0  0  0  0  0  0  0  0  0
   -4.3301   -1.5000    0.0000 C   0  0  0  0  0  0  0  0  0  0  0  0
   -4.3301   -3.0000    0.0000 C   0  0  0  0  0  0  0  0  0  0  0  0
   -3.0311   -3.7500    0.0000 C   0  0  0  0  0  0  0  0  0  0  0  0
   -3.0311   -5.2500    0.0000 C   0  0  0  0  0  0  0  0  0  0  0  0
   -3.0311   -6.7500    0.0000 C   0  0  0  0  0  0  0  0  0  0  0  0
   -3.0311   -8.2500    0.0000 C   0  0  0  0  0  0  0  0  0  0  0  0
   -3.0311   -9.7500    0.0000 C   0  0  0  0  0  0  0  0  0  0  0  0
   -3.0311  -11.2500    0.0000 C   0  0  0  0  0  0  0  0  0  0  0  0
   -3.0311  -12.7500    0.0000 N   0  0  0  0  0  0  0  0  0  0  0  0
   -3.0311    0.7500    0.0000 C   0  0  0  0  0  0  0  0  0  0  0  0
   -3.0311    2.2500    0.0000 C   0  0  0  0  0  0  0  0  0  0  0  0
   -4.3301    3.0000    0.0000 C   0  0  0  0  0  0  0  0  0  0  0  0
   -1.7321    3.0000    0.0000 C   0  0  0  0  0  0  0  0  0  0  0  0
   -0.4330    2.2500    0.0000 N   0  0  0  0  0  0  0  0  0  0  0  0
   -0.4330    0.7500    0.0000 C   0  0  0  0  0  0  0  0  0  0  0  0
    0.8660    0.0000    0.0000 N   0  0  0  0  0  0  0  0  0  0  0  0
   -0.4330   -0.7500    0.0000 C   0  0  0  0  0  0  0  0  0  0  0  0
   -1.7321    0.0000    0.0000 C   0  0  0  0  0  0  0  0  0  0  0  0
  -10.8253    5.2500    0.0000 H   0  0  0  0  0  0  0  0  0  0  0  0
   -8.7763    5.7990    0.0000 H   0  0  0  0  0  0  0  0  0  0  0  0
  -10.2763    3.2010    0.0000 H   0  0  0  0  0  0  0  0  0  0  0  0
   -7.8812    4.5653    0.0000 H   0  0  0  0  0  0  0  0  0  0  0  0
   -8.9772    2.4510    0.0000 H   0  0  0  0  0  0  0  0  0  0  0  0
   -7.6782    1.7010    0.0000 H   0  0  0  0  0  0  0  0  0  0  0  0
   -5.4282    5.5981    0.0000 H   0  0  0  0  0  0  0  0  0  0  0  0
   -6.8856    4.8321    0.0000 H   0  0  0  0  0  0  0  0  0  0  0  0
   -5.3268    4.0549    0.0000 H   0  0  0  0  0  0  0  0  0  0  0  0
   -6.9282   -0.0000    0.0000 H   0  0  0  0  0  0  0  0  0  0  0  0
   -5.8301   -1.5000    0.0000 H   0  0  0  0  0  0  0  0  0  0  0  0
   -2.8301   -1.5000    0.0000 H   0  0  0  0  0  0  0  0  0  0  0  0
   -5.6292   -3.7500    0.0000 H   0  0  0  0  0  0  0  0  0  0  0  0
   -1.7321   -3.0000    0.0000 H   0  0  0  0  0  0  0  0  0  0  0  0
   -1.5311   -5.2500    0.0000 H   0  0  0  0  0  0  0  0  0  0  0  0
   -4.5311   -5.2500    0.0000 H   0  0  0  0  0  0  0  0  0  0  0  0
   -4.5311   -6.7500    0.0000 H   0  0  0  0  0  0  0  0  0  0  0  0
   -1.5311   -6.7500    0.0000 H   0  0  0  0  0  0  0  0  0  0  0  0
   -1.5311   -8.2500    0.0000 H   0  0  0  0  0  0  0  0  0  0  0  0
   -4.5311   -8.2500    0.0000 H   0  0  0  0  0  0  0  0  0  0  0  0
   -4.5311   -9.7500    0.0000 H   0  0  0  0  0  0  0  0  0  0  0  0
   -1.5311   -9.7500    0.0000 H   0  0  0  0  0  0  0  0  0  0  0  0
   -1.5311  -11.2500    0.0000 H   0  0  0  0  0  0  0  0  0  0  0  0
   -4.5311  -11.2500    0.0000 H   0  0  0  0  0  0  0  0  0  0  0  0
   -4.3301  -13.5000    0.0000 H   0  0  0  0  0  0  0  0  0  0  0  0
   -1.7321  -13.5000    0.0000 H   0  0  0  0  0  0  0  0  0  0  0  0
   -4.3301    3.8857    0.0000 H   0  0  0  0  0  0  0  0  0  0  0  0
   -0.7679    4.1491    0.0000 H   0  0  0  0  0  0  0  0  0  0  0  0
   -2.6962    4.1491    0.0000 H   0  0  0  0  0  0  0  0  0  0  0  0
    0.8660    3.0000    0.0000 H   0  0  0  0  0  0  0  0  0  0  0  0
    2.3660    0.0000    0.0000 H   0  0  0  0  0  0  0  0  0  0  0  0
   -0.4330   -2.2500    0.0000 H   0  0  0  0  0  0  0  0  0  0  0  0
   -1.3187    1.4419    0.0000 H   0  0  0  0  0  0  0  0  0  0  0  0
  1  2  1  0
  2  3  1  0
  3  4  1  0
  3  5  1  0
  5  6  2  0
  6  7  1  0
  7  8  1  0
  8  9  1  0
  9 10  2  3
 10 11  1  0
 11 12  1  0
 12 13  1  0
 13 14  1  0
 14 15  1  0
 15 16  1  0
  7 17  2  0
 17 18  1  0
 18 19  2  0
 18 20  1  0
 20 21  1  0
 22 21  1  1
 22 23  1  0
 23 24  1  0
 24 25  1  0
 19  5  1  0
 24 22  1  0
 25 17  1  0
 25 22  1  0
  1 26  1  0
  1 27  1  0
  1 28  1  0
  2 29  1  0
  2 30  1  0
  3 31  1  6
  4 32  1  0
  4 33  1  0
  4 34  1  0
  6 35  1  0
  8 36  1  0
  8 37  1  0
  9 38  1  0
 10 39  1  0
 11 40  1  0
 11 41  1  0
 12 42  1  0
 12 43  1  0
 13 44  1  0
 13 45  1  0
 14 46  1  0
 14 47  1  0
 15 48  1  0
 15 49  1  0
 16 50  1  0
 16 51  1  0
 19 52  1  0
 20 53  1  0
 20 54  1  0
 21 55  1  0
 23 56  1  0
 24 57  1  1
 25 58  1  6
M  END
$$$$
