
     RDKit          2D

108116  0  0  0  0  0  0  0  0999 V2000
   -1.1864   19.9813    0.0000 C   0  0  0  0  0  0  0  0  0  0  0  0
   -2.5073   19.2705    0.0000 C   0  0  0  0  0  0  0  0  0  0  0  0
   -2.5522   17.7712    0.0000 C   0  0  0  0  0  0  0  0  0  0  0  0
   -4.0386   17.9725    0.0000 B   0  0  0  0  0  0  0  0  0  0  0  0
   -4.6894   16.6211    0.0000 C   0  0  0  0  0  0  0  0  0  0  0  0
   -3.6052   15.5845    0.0000 C   0  0  0  0  0  0  0  0  0  0  0  0
   -2.7602   14.3451    0.0000 C   0  0  0  0  0  0  0  0  0  0  0  0
   -1.9153   13.1058    0.0000 C   0  0  0  0  0  0  0  0  0  0  0  0
   -1.0703   11.8664    0.0000 C   0  0  0  0  0  0  0  0  0  0  0  0
   -0.2253   10.6271    0.0000 C   0  0  0  0  0  0  0  0  0  0  0  0
   -3.1546   12.2608    0.0000 C   0  0  0  0  0  0  0  0  0  0  0  0
   -4.3940   11.4158    0.0000 C   0  0  0  0  0  0  0  0  0  0  0  0
   -5.6333   10.5708    0.0000 C   0  0  0  0  0  0  0  0  0  0  0  0
   -6.8727    9.7259    0.0000 C   0  0  0  0  0  0  0  0  0  0  0  0
   -8.1121    8.8809    0.0000 C   0  0  0  0  0  0  0  0  0  0  0  0
   -8.0000    7.3851    0.0000 C   0  0  0  0  0  0  0  0  0  0  0  0
   -7.8879    5.8893    0.0000 C   0  0  0  0  0  0  0  0  0  0  0  0
   -6.5364    5.2384    0.0000 C   0  0  0  0  0  0  0  0  0  0  0  0
   -5.1850    4.5876    0.0000 C   0  0  0  0  0  0  0  0  0  0  0  0
   -3.8335    3.9368    0.0000 C   0  0  0  0  0  0  0  0  0  0  0  0
   -2.4821    3.2860    0.0000 C   0  0  0  0  0  0  0  0  0  0  0  0
   -1.1306    2.6351    0.0000 C   0  0  0  0  0  0  0  0  0  0  0  0
    0.3694    2.6351    0.0000 C   0  0  0  0  0  0  0  0  0  0  0  0
    1.3046    1.4624    0.0000 C   0  0  0  0  0  0  0  0  0  0  0  0
    0.8660    0.0000    0.0000 C   0  0  0  0  0  0  0  0  0  0  0  0
   -0.4330    0.7500    0.0000 C   0  0  0  0  0  0  0  0  0  0  0  0
   -0.4330   -0.7500    0.0000 C   0  0  0  0  0  0  0  0  0  0  0  0
   -1.7321    0.0000    0.0000 C   0  0  0  0  0  0  0  0  0  0  0  0
   -2.0658    1.4624    0.0000 C   0  0  0  0  0  0  0  0  0  0  0  0
   -3.4173    0.8116    0.0000 C   0  0  0  0  0  0  0  0  0  0  0  0
   -3.5294   -0.6842    0.0000 C   0  0  0  0  0  0  0  0  0  0  0  0
   -4.7687    0.1607    0.0000 C   0  0  0  0  0  0  0  0  0  0  0  0
   -6.2260   -0.1949    0.0000 C   0  0  0  0  0  0  0  0  0  0  0  0
   -5.7200   -1.6070    0.0000 C   0  0  0  0  0  0  0  0  0  0  0  0
   -7.0145    1.0811    0.0000 C   0  0  0  0  0  0  0  0  0  0  0  0
   -8.2011    0.1636    0.0000 C   0  0  0  0  0  0  0  0  0  0  0  0
   -7.5035   -1.1644    0.0000 O   0  0  0  0  0  0  0  0  0  0  0  0
   -9.3108    1.1728    0.0000 C   0  0  0  0  0  0  0  0  0  0  0  0
  -10.7765    1.4920    0.0000 C   0  0  0  0  0  0  0  0  0  0  0  0
  -11.0956    0.0263    0.0000 O   0  0  0  0  0  0  0  0  0  0  0  0
   -9.6300   -0.2929    0.0000 C   0  0  0  0  0  0  0  0  0  0  0  0
   -6.0446    2.2254    0.0000 C   0  0  0  0  0  0  0  0  0  0  0  0
   -7.2840    3.0704    0.0000 C   0  0  0  0  0  0  0  0  0  0  0  0
   -4.6566    1.6565    0.0000 C   0  0  0  0  0  0  0  0  0  0  0  0
   -2.2843   16.2953    0.0000 C   0  0  0  0  0  0  0  0  0  0  0  0
   -1.1415   21.4807    0.0000 H   0  0  0  0  0  0  0  0  0  0  0  0
    0.0896   19.1928    0.0000 H   0  0  0  0  0  0  0  0  0  0  0  0
   -3.7833   20.0590    0.0000 H   0  0  0  0  0  0  0  0  0  0  0  0
   -1.0564   17.8833    0.0000 H   0  0  0  0  0  0  0  0  0  0  0  0
   -4.7494   19.2934    0.0000 H   0  0  0  0  0  0  0  0  0  0  0  0
   -5.6070   15.4345    0.0000 H   0  0  0  0  0  0  0  0  0  0  0  0
   -5.9654   17.4096    0.0000 H   0  0  0  0  0  0  0  0  0  0  0  0
   -4.7495   14.6146    0.0000 H   0  0  0  0  0  0  0  0  0  0  0  0
   -3.5474   13.9391    0.0000 H   0  0  0  0  0  0  0  0  0  0  0  0
   -1.4271   15.0327    0.0000 H   0  0  0  0  0  0  0  0  0  0  0  0
   -0.6759   13.9508    0.0000 H   0  0  0  0  0  0  0  0  0  0  0  0
    0.1691   12.7114    0.0000 H   0  0  0  0  0  0  0  0  0  0  0  0
   -1.7358   11.2820    0.0000 H   0  0  0  0  0  0  0  0  0  0  0  0
    0.6197    9.3877    0.0000 H   0  0  0  0  0  0  0  0  0  0  0  0
    1.0141   11.4720    0.0000 H   0  0  0  0  0  0  0  0  0  0  0  0
   -1.4647    9.7821    0.0000 H   0  0  0  0  0  0  0  0  0  0  0  0
   -3.7391   12.9263    0.0000 H   0  0  0  0  0  0  0  0  0  0  0  0
   -2.7486   11.4736    0.0000 H   0  0  0  0  0  0  0  0  0  0  0  0
   -3.5490   10.1765    0.0000 H   0  0  0  0  0  0  0  0  0  0  0  0
   -5.2390   12.6552    0.0000 H   0  0  0  0  0  0  0  0  0  0  0  0
   -6.4783   11.8102    0.0000 H   0  0  0  0  0  0  0  0  0  0  0  0
   -4.7884    9.3315    0.0000 H   0  0  0  0  0  0  0  0  0  0  0  0
   -7.7177   10.9652    0.0000 H   0  0  0  0  0  0  0  0  0  0  0  0
   -6.0277    8.4865    0.0000 H   0  0  0  0  0  0  0  0  0  0  0  0
   -9.4635    9.5317    0.0000 H   0  0  0  0  0  0  0  0  0  0  0  0
   -9.1272    5.0443    0.0000 H   0  0  0  0  0  0  0  0  0  0  0  0
   -6.9695    3.9598    0.0000 H   0  0  0  0  0  0  0  0  0  0  0  0
   -5.8856    6.5899    0.0000 H   0  0  0  0  0  0  0  0  0  0  0  0
   -5.6662    3.1669    0.0000 H   0  0  0  0  0  0  0  0  0  0  0  0
   -4.5341    5.9391    0.0000 H   0  0  0  0  0  0  0  0  0  0  0  0
   -4.3147    2.5161    0.0000 H   0  0  0  0  0  0  0  0  0  0  0  0
   -3.1827    5.2882    0.0000 H   0  0  0  0  0  0  0  0  0  0  0  0
   -3.2928    2.0239    0.0000 H   0  0  0  0  0  0  0  0  0  0  0  0
   -1.8312    4.6374    0.0000 H   0  0  0  0  0  0  0  0  0  0  0  0
   -0.9776    4.1273    0.0000 H   0  0  0  0  0  0  0  0  0  0  0  0
    0.2164    4.1273    0.0000 H   0  0  0  0  0  0  0  0  0  0  0  0
    1.6314    3.4458    0.0000 H   0  0  0  0  0  0  0  0  0  0  0  0
    2.3759    2.5124    0.0000 H   0  0  0  0  0  0  0  0  0  0  0  0
    2.7253    0.9812    0.0000 H   0  0  0  0  0  0  0  0  0  0  0  0
    2.3548   -0.1828    0.0000 H   0  0  0  0  0  0  0  0  0  0  0  0
   -0.1390    1.9289    0.0000 H   0  0  0  0  0  0  0  0  0  0  0  0
   -0.4330   -2.2500    0.0000 H   0  0  0  0  0  0  0  0  0  0  0  0
   -2.9109   -0.2940    0.0000 H   0  0  0  0  0  0  0  0  0  0  0  0
   -3.1370    2.5124    0.0000 H   0  0  0  0  0  0  0  0  0  0  0  0
   -2.0758   -1.0544    0.0000 H   0  0  0  0  0  0  0  0  0  0  0  0
   -4.1463   -2.0515    0.0000 H   0  0  0  0  0  0  0  0  0  0  0  0
   -7.3798   -1.1534    0.0000 H   0  0  0  0  0  0  0  0  0  0  0  0
   -5.2140   -3.0190    0.0000 H   0  0  0  0  0  0  0  0  0  0  0  0
   -7.1321   -2.1130    0.0000 H   0  0  0  0  0  0  0  0  0  0  0  0
   -4.3079   -1.1010    0.0000 H   0  0  0  0  0  0  0  0  0  0  0  0
   -8.0511    2.1653    0.0000 H   0  0  0  0  0  0  0  0  0  0  0  0
   -8.3047   -2.4325    0.0000 H   0  0  0  0  0  0  0  0  0  0  0  0
   -8.6232    2.5059    0.0000 H   0  0  0  0  0  0  0  0  0  0  0  0
  -12.2421    1.8112    0.0000 H   0  0  0  0  0  0  0  0  0  0  0  0
  -10.4573    2.9576    0.0000 H   0  0  0  0  0  0  0  0  0  0  0  0
   -9.5590   -1.7912    0.0000 H   0  0  0  0  0  0  0  0  0  0  0  0
   -5.1781    3.4498    0.0000 H   0  0  0  0  0  0  0  0  0  0  0  0
   -8.5233    3.9153    0.0000 H   0  0  0  0  0  0  0  0  0  0  0  0
   -6.2942    4.1975    0.0000 H   0  0  0  0  0  0  0  0  0  0  0  0
   -8.1289    1.8310    0.0000 H   0  0  0  0  0  0  0  0  0  0  0  0
   -3.7901    2.8809    0.0000 H   0  0  0  0  0  0  0  0  0  0  0  0
   -0.8445   16.7159    0.0000 H   0  0  0  0  0  0  0  0  0  0  0  0
   -1.5505   14.9870    0.0000 H   0  0  0  0  0  0  0  0  0  0  0  0
  1  2  2  3
  2  3  1  0
  3  4  1  0
  4  5  1  0
  5  6  1  0
  6  7  1  0
  7  8  1  0
  8  9  1  0
  9 10  1  0
  8 11  1  0
 11 12  1  0
 12 13  1  0
 13 14  1  0
 14 15  1  0
 15 16  2  0
 16 17  2  0
 17 18  1  0
 18 19  1  0
 19 20  1  0
 20 21  1  0
 21 22  1  0
 22 23  1  0
 23 24  1  0
 24 25  1  0
 25 26  1  0
 26 27  1  0
 27 28  1  0
 28 29  1  0
 29 30  1  0
 30 31  1  0
 31 32  1  0
 32 33  1  0
 33 34  1  0
 33 35  1  0
 35 36  1  0
 36 37  1  0
 36 38  1  0
 38 39  1  0
 39 40  1  0
 40 41  1  0
 35 42  1  0
 42 43  1  0
 42 44  1  0
  6 45  1  0
 45  3  1  0
 29 22  1  0
 32 30  1  0
 41 36  1  0
 27 25  1  0
 44 30  1  0
 28 26  1  0
 44 32  1  0
 41 38  1  0
  1 46  1  0
  1 47  1  0
  2 48  1  0
  3 49  1  0
  4 50  1  0
  5 51  1  0
  5 52  1  0
  6 53  1  0
  7 54  1  0
  7 55  1  0
  8 56  1  0
  9 57  1  0
  9 58  1  0
 10 59  1  0
 10 60  1  0
 10 61  1  0
 11 62  1  0
 11 63  1  0
 12 64  1  0
 12 65  1  0
 13 66  1  0
 13 67  1  0
 14 68  1  0
 14 69  1  0
 15 70  1  0
 17 71  1  0
 18 72  1  0
 18 73  1  0
 19 74  1  0
 19 75  1  0
 20 76  1  0
 20 77  1  0
 21 78  1  0
 21 79  1  0
 22 80  1  0
 23 81  1  0
 23 82  1  0
 24 83  1  0
 24 84  1  0
 25 85  1  0
 26 86  1  0
 27 87  1  0
 28 88  1  0
 29 89  1  0
 31 90  1  0
 31 91  1  0
 33 92  1  0
 34 93  1  0
 34 94  1  0
 34 95  1  0
 35 96  1  0
 37 97  1  0
 38 98  1  0
 39 99  1  0
 39100  1  0
 41101  1  0
 42102  1  0
 43103  1  0
 43104  1  0
 43105  1  0
 44106  1  0
 45107  1  0
 45108  1  0
M  END
$$$$
