
     RDKit          2D

 80 86  0  0  0  0  0  0  0  0999 V2000
   -5.9195    4.9358    0.0000 C   0  0  0  0  0  0  0  0  0  0  0  0
   -5.7887    3.4415    0.0000 C   0  0  0  0  0  0  0  0  0  0  0  0
   -5.6580    1.9472    0.0000 C   0  0  0  0  0  0  0  0  0  0  0  0
   -5.5273    0.4529    0.0000 C   0  0  0  0  0  0  0  0  0  0  0  0
   -5.3965   -1.0414    0.0000 N   0  0  0  0  0  2  0  0  0  0  0  0
   -4.0371   -1.6753    0.0000 C   0  0  0  0  0  0  0  0  0  0  0  0
   -2.9224   -0.6716    0.0000 O   0  0  0  0  0  1  0  0  0  0  0  0
   -3.9063   -3.1696    0.0000 C   0  0  0  0  0  0  0  0  0  0  0  0
   -3.7756   -4.6639    0.0000 C   0  0  0  0  0  0  0  0  0  0  0  0
   -2.4161   -5.2978    0.0000 C   0  0  0  0  0  0  0  0  0  0  0  0
   -2.2854   -6.7921    0.0000 C   0  0  0  0  0  0  0  0  0  0  0  0
   -3.7343   -7.1804    0.0000 C   0  0  0  0  0  0  0  0  0  0  0  0
   -5.1832   -7.5686    0.0000 C   0  0  0  0  0  0  0  0  0  0  0  0
   -6.6321   -7.9568    0.0000 C   0  0  0  0  0  0  0  0  0  0  0  0
   -8.0810   -8.3450    0.0000 C   0  0  0  0  0  0  0  0  0  0  0  0
   -9.5299   -8.7333    0.0000 C   0  0  0  0  0  0  0  0  0  0  0  0
   -3.3461   -8.6292    0.0000 C   0  0  0  0  0  0  0  0  0  0  0  0
   -3.4768  -10.1235    0.0000 C   0  0  0  0  0  0  0  0  0  0  0  0
   -4.7055   -9.2632    0.0000 C   0  0  0  0  0  0  0  0  0  0  0  0
   -5.7662  -10.3238    0.0000 C   0  0  0  0  0  0  0  0  0  0  0  0
   -1.0567   -5.9318    0.0000 C   0  0  0  0  0  0  0  0  0  0  0  0
    0.1720   -5.0714    0.0000 C   0  0  0  0  0  0  0  0  0  0  0  0
    1.2327   -6.1321    0.0000 C   0  0  0  0  0  0  0  0  0  0  0  0
    2.5922   -6.7660    0.0000 C   0  0  0  0  0  0  0  0  0  0  0  0
    2.4614   -5.2717    0.0000 C   0  0  0  0  0  0  0  0  0  0  0  0
    3.9103   -4.8835    0.0000 C   0  0  0  0  0  0  0  0  0  0  0  0
    5.3592   -4.4952    0.0000 C   0  0  0  0  0  0  0  0  0  0  0  0
    6.8081   -4.1070    0.0000 C   0  0  0  0  0  0  0  0  0  0  0  0
   -1.1874   -4.4375    0.0000 C   0  0  0  0  0  0  0  0  0  0  0  0
   -1.3182   -2.9432    0.0000 C   0  0  0  0  0  0  0  0  0  0  0  0
    0.1761   -2.8124    0.0000 O   0  0  0  0  0  0  0  0  0  0  0  0
   -1.4489   -1.4489    0.0000 C   0  0  0  0  0  0  0  0  0  0  0  0
   -0.0000   -1.0607    0.0000 C   0  0  0  0  0  0  0  0  0  0  0  0
    1.0607   -0.0000    0.0000 C   0  0  0  0  0  0  0  0  0  0  0  0
   -0.0000    1.0607    0.0000 O   0  0  0  0  0  0  0  0  0  0  0  0
   -1.0607   -0.0000    0.0000 C   0  0  0  0  0  0  0  0  0  0  0  0
   -2.3597    0.7500    0.0000 O   0  0  0  0  0  0  0  0  0  0  0  0
   -6.0502    6.4301    0.0000 H   0  0  0  0  0  0  0  0  0  0  0  0
   -7.1523    1.8165    0.0000 H   0  0  0  0  0  0  0  0  0  0  0  0
   -4.1637    2.0779    0.0000 H   0  0  0  0  0  0  0  0  0  0  0  0
   -4.0330    0.5836    0.0000 H   0  0  0  0  0  0  0  0  0  0  0  0
   -7.0216    0.3222    0.0000 H   0  0  0  0  0  0  0  0  0  0  0  0
   -5.1760   -5.2014    0.0000 H   0  0  0  0  0  0  0  0  0  0  0  0
   -1.6415   -7.8225    0.0000 H   0  0  0  0  0  0  0  0  0  0  0  0
   -4.2963   -5.7896    0.0000 H   0  0  0  0  0  0  0  0  0  0  0  0
   -5.1693   -8.3656    0.0000 H   0  0  0  0  0  0  0  0  0  0  0  0
   -5.7451   -6.1778    0.0000 H   0  0  0  0  0  0  0  0  0  0  0  0
   -7.0203   -6.5079    0.0000 H   0  0  0  0  0  0  0  0  0  0  0  0
   -6.4234   -9.4422    0.0000 H   0  0  0  0  0  0  0  0  0  0  0  0
   -7.6927   -9.7939    0.0000 H   0  0  0  0  0  0  0  0  0  0  0  0
   -8.4692   -6.8962    0.0000 H   0  0  0  0  0  0  0  0  0  0  0  0
  -10.9787   -9.1215    0.0000 H   0  0  0  0  0  0  0  0  0  0  0  0
   -9.1416  -10.1822    0.0000 H   0  0  0  0  0  0  0  0  0  0  0  0
   -9.9181   -7.2844    0.0000 H   0  0  0  0  0  0  0  0  0  0  0  0
   -2.1318   -8.6717    0.0000 H   0  0  0  0  0  0  0  0  0  0  0  0
   -2.0279  -10.5118    0.0000 H   0  0  0  0  0  0  0  0  0  0  0  0
   -3.9403  -11.5501    0.0000 H   0  0  0  0  0  0  0  0  0  0  0  0
   -5.6226   -8.4661    0.0000 H   0  0  0  0  0  0  0  0  0  0  0  0
   -6.8269  -11.3845    0.0000 H   0  0  0  0  0  0  0  0  0  0  0  0
   -6.9482   -9.4004    0.0000 H   0  0  0  0  0  0  0  0  0  0  0  0
   -4.8427  -11.5059    0.0000 H   0  0  0  0  0  0  0  0  0  0  0  0
    1.0324   -3.8427    0.0000 H   0  0  0  0  0  0  0  0  0  0  0  0
    0.3723   -7.3608    0.0000 H   0  0  0  0  0  0  0  0  0  0  0  0
    2.2039   -8.2149    0.0000 H   0  0  0  0  0  0  0  0  0  0  0  0
    4.0594   -7.0779    0.0000 H   0  0  0  0  0  0  0  0  0  0  0  0
    1.8275   -3.9122    0.0000 H   0  0  0  0  0  0  0  0  0  0  0  0
    3.5221   -3.4346    0.0000 H   0  0  0  0  0  0  0  0  0  0  0  0
    4.4723   -6.2742    0.0000 H   0  0  0  0  0  0  0  0  0  0  0  0
    5.7474   -5.9441    0.0000 H   0  0  0  0  0  0  0  0  0  0  0  0
    4.9710   -3.0463    0.0000 H   0  0  0  0  0  0  0  0  0  0  0  0
    8.2570   -3.7188    0.0000 H   0  0  0  0  0  0  0  0  0  0  0  0
    6.4199   -2.6581    0.0000 H   0  0  0  0  0  0  0  0  0  0  0  0
    7.1963   -5.5559    0.0000 H   0  0  0  0  0  0  0  0  0  0  0  0
   -2.8124   -3.0739    0.0000 H   0  0  0  0  0  0  0  0  0  0  0  0
    1.0365   -4.0412    0.0000 H   0  0  0  0  0  0  0  0  0  0  0  0
   -2.9161   -1.1370    0.0000 H   0  0  0  0  0  0  0  0  0  0  0  0
    1.0420   -2.1396    0.0000 H   0  0  0  0  0  0  0  0  0  0  0  0
    2.1213    1.0607    0.0000 H   0  0  0  0  0  0  0  0  0  0  0  0
    2.1213   -1.0607    0.0000 H   0  0  0  0  0  0  0  0  0  0  0  0
   -2.3597    2.2500    0.0000 H   0  0  0  0  0  0  0  0  0  0  0  0
  1  2  3  0
  2  3  1  0
  3  4  1  0
  4  5  1  0
  5  6  1  0
  6  7  1  0
  6  8  2  0
  8  9  2  0
  9 10  1  0
 10 11  1  0
 11 12  1  0
 12 13  1  0
 13 14  1  0
 14 15  1  0
 15 16  1  0
 12 17  1  0
 17 18  1  0
 18 19  1  0
 19 20  1  0
 11 21  1  0
 21 22  1  0
 22 23  1  0
 23 24  1  0
 24 25  1  0
 25 26  1  0
 26 27  1  0
 27 28  1  0
 22 29  1  0
 29 30  1  0
 30 31  1  0
 30 32  1  0
 32 33  1  0
 33 34  1  0
 34 35  1  0
 35 36  1  0
 36 37  1  0
 21 10  1  0
 25 23  1  0
 36 32  1  0
 29 10  1  0
 36 33  1  0
 19 17  1  0
 29 21  1  0
  1 38  1  0
  3 39  1  0
  3 40  1  0
  4 41  1  0
  4 42  1  0
  9 43  1  0
 11 44  1  0
 12 45  1  0
 13 46  1  0
 13 47  1  0
 14 48  1  0
 14 49  1  0
 15 50  1  0
 15 51  1  0
 16 52  1  0
 16 53  1  0
 16 54  1  0
 17 55  1  0
 18 56  1  0
 18 57  1  0
 19 58  1  0
 20 59  1  0
 20 60  1  0
 20 61  1  0
 22 62  1  0
 23 63  1  0
 24 64  1  0
 24 65  1  0
 25 66  1  0
 26 67  1  0
 26 68  1  0
 27 69  1  0
 27 70  1  0
 28 71  1  0
 28 72  1  0
 28 73  1  0
 30 74  1  0
 31 75  1  0
 32 76  1  0
 33 77  1  0
 34 78  1  0
 34 79  1  0
 37 80  1  0
M  RAD  2   5   2   7   2
M  END
$$$$
