
     RDKit          2D

 43 45  0  0  0  0  0  0  0  0999 V2000
   -2.5778    2.9779    0.0000 N   0  0  0  0  0  0  0  0  0  0  0  0
   -3.9874    2.4649    0.0000 C   0  0  0  0  0  0  0  0  0  0  0  0
   -5.1364    3.4291    0.0000 N   0  0  0  0  0  0  0  0  0  0  0  0
   -4.2478    0.9877    0.0000 C   0  0  0  0  0  0  0  0  0  0  0  0
   -4.5083   -0.4895    0.0000 C   0  0  0  0  0  0  0  0  0  0  0  0
   -4.7688   -1.9667    0.0000 C   0  0  0  0  0  0  0  0  0  0  0  0
   -5.0292   -3.4440    0.0000 C   0  0  0  0  0  0  0  0  0  0  0  0
   -6.5065   -3.1835    0.0000 C   0  0  0  0  0  0  0  0  0  0  0  0
   -6.7669   -4.6607    0.0000 C   0  0  0  0  0  0  0  0  0  0  0  0
   -5.2897   -4.9212    0.0000 C   0  0  0  0  0  0  0  0  0  0  0  0
   -3.0311   -0.7500    0.0000 C   0  0  0  0  0  0  0  0  0  0  0  0
   -3.5441   -2.1595    0.0000 C   0  0  0  0  0  0  0  0  0  0  0  0
   -2.5799   -3.3086    0.0000 C   0  0  0  0  0  0  0  0  0  0  0  0
   -1.1027   -3.0481    0.0000 C   0  0  0  0  0  0  0  0  0  0  0  0
    0.3745   -2.7877    0.0000 C   0  0  0  0  0  0  0  0  0  0  0  0
   -0.5897   -1.6386    0.0000 C   0  0  0  0  0  0  0  0  0  0  0  0
   -1.5539   -0.4895    0.0000 C   0  0  0  0  0  0  0  0  0  0  0  0
   -2.3173    4.4551    0.0000 H   0  0  0  0  0  0  0  0  0  0  0  0
   -6.5460    2.9160    0.0000 H   0  0  0  0  0  0  0  0  0  0  0  0
   -4.8760    4.9063    0.0000 H   0  0  0  0  0  0  0  0  0  0  0  0
   -2.7515    1.0924    0.0000 H   0  0  0  0  0  0  0  0  0  0  0  0
   -5.7250    1.2482    0.0000 H   0  0  0  0  0  0  0  0  0  0  0  0
   -5.9855   -0.2291    0.0000 H   0  0  0  0  0  0  0  0  0  0  0  0
   -6.2032   -1.5281    0.0000 H   0  0  0  0  0  0  0  0  0  0  0  0
   -4.0405   -2.2910    0.0000 H   0  0  0  0  0  0  0  0  0  0  0  0
   -3.5948   -3.8825    0.0000 H   0  0  0  0  0  0  0  0  0  0  0  0
   -7.9837   -2.9230    0.0000 H   0  0  0  0  0  0  0  0  0  0  0  0
   -6.4280   -1.6855    0.0000 H   0  0  0  0  0  0  0  0  0  0  0  0
   -7.0274   -6.1379    0.0000 H   0  0  0  0  0  0  0  0  0  0  0  0
   -8.2441   -4.4002    0.0000 H   0  0  0  0  0  0  0  0  0  0  0  0
   -3.8125   -5.1816    0.0000 H   0  0  0  0  0  0  0  0  0  0  0  0
   -5.5502   -6.3984    0.0000 H   0  0  0  0  0  0  0  0  0  0  0  0
   -2.8482    0.7388    0.0000 H   0  0  0  0  0  0  0  0  0  0  0  0
   -4.2016   -3.5078    0.0000 H   0  0  0  0  0  0  0  0  0  0  0  0
   -4.9860   -1.7462    0.0000 H   0  0  0  0  0  0  0  0  0  0  0  0
   -2.0669   -4.7181    0.0000 H   0  0  0  0  0  0  0  0  0  0  0  0
   -3.7779   -4.2114    0.0000 H   0  0  0  0  0  0  0  0  0  0  0  0
   -0.8423   -4.5253    0.0000 H   0  0  0  0  0  0  0  0  0  0  0  0
    0.8875   -4.1972    0.0000 H   0  0  0  0  0  0  0  0  0  0  0  0
    1.6735   -2.0377    0.0000 H   0  0  0  0  0  0  0  0  0  0  0  0
    0.5594   -0.6744    0.0000 H   0  0  0  0  0  0  0  0  0  0  0  0
   -1.8913    0.9720    0.0000 H   0  0  0  0  0  0  0  0  0  0  0  0
   -0.2548    0.2605    0.0000 H   0  0  0  0  0  0  0  0  0  0  0  0
  1  2  2  3
  2  3  1  0
  2  4  1  0
  4  5  1  0
  5  6  1  0
  6  7  1  0
  7  8  1  0
  8  9  1  0
  9 10  1  0
  5 11  1  0
 11 12  1  0
 12 13  1  0
 13 14  1  0
 14 15  1  0
 15 16  1  0
 16 17  1  0
 10  7  1  0
 17 11  1  0
 16 14  1  0
  1 18  1  0
  3 19  1  0
  3 20  1  0
  4 21  1  0
  4 22  1  0
  5 23  1  6
  6 24  1  0
  6 25  1  0
  7 26  1  0
  8 27  1  0
  8 28  1  0
  9 29  1  0
  9 30  1  0
 10 31  1  0
 10 32  1  0
 11 33  1  1
 12 34  1  0
 12 35  1  0
 13 36  1  0
 13 37  1  0
 14 38  1  1
 15 39  1  0
 15 40  1  0
 16 41  1  1
 17 42  1  0
 17 43  1  0
M  END
$$$$
