
     RDKit          2D

 27 30  0  0  0  0  0  0  0  0999 V2000
   -4.1357   -2.0392    0.0000 C   0  0  0  0  0  0  0  0  0  0  0  0
   -1.6926   -1.4452    0.0000 C   0  0  0  0  0  0  0  0  0  0  0  0
   -4.1357   -0.1108    0.0000 C   0  0  0  0  0  0  0  0  0  0  0  0
   -0.9750   -0.1286    0.0000 C   0  0  0  0  0  0  0  0  0  0  0  0
   -0.4330    0.7500    0.0000 C   0  0  0  0  0  0  0  0  0  0  0  0
    0.8660    0.0000    0.0000 C   0  0  0  0  0  0  0  0  0  0  0  0
   -0.4330   -0.7500    0.0000 C   0  0  0  0  0  0  0  0  0  0  0  0
   -0.7449   -2.2172    0.0000 C   0  0  0  0  0  0  0  0  0  0  0  0
   -2.2367   -2.3740    0.0000 C   0  0  0  0  0  0  0  0  0  0  0  0
   -2.1621   -1.1492    0.0000 C   0  0  0  0  0  0  0  0  0  0  0  0
   -1.7321    0.0000    0.0000 C   0  0  0  0  0  0  0  0  0  0  0  0
   -5.2848   -3.0033    0.0000 H   0  0  0  0  0  0  0  0  0  0  0  0
   -5.2328   -1.0162    0.0000 H   0  0  0  0  0  0  0  0  0  0  0  0
   -3.3188   -3.2972    0.0000 H   0  0  0  0  0  0  0  0  0  0  0  0
   -5.2848    0.8534    0.0000 H   0  0  0  0  0  0  0  0  0  0  0  0
   -5.2328   -1.1338    0.0000 H   0  0  0  0  0  0  0  0  0  0  0  0
   -3.4782    1.2374    0.0000 H   0  0  0  0  0  0  0  0  0  0  0  0
   -3.4802    1.0629    0.0000 H   0  0  0  0  0  0  0  0  0  0  0  0
   -2.1582    1.7220    0.0000 H   0  0  0  0  0  0  0  0  0  0  0  0
    1.8302    1.1491    0.0000 H   0  0  0  0  0  0  0  0  0  0  0  0
    1.8302   -1.1491    0.0000 H   0  0  0  0  0  0  0  0  0  0  0  0
    0.7469   -2.3740    0.0000 H   0  0  0  0  0  0  0  0  0  0  0  0
   -0.7449   -3.7172    0.0000 H   0  0  0  0  0  0  0  0  0  0  0  0
   -2.8227   -3.7548    0.0000 H   0  0  0  0  0  0  0  0  0  0  0  0
   -3.9257   -2.0457    0.0000 H   0  0  0  0  0  0  0  0  0  0  0  0
   -3.5739    0.3083    0.0000 H   0  0  0  0  0  0  0  0  0  0  0  0
   -2.2939    1.3908    0.0000 H   0  0  0  0  0  0  0  0  0  0  0  0
  1  2  1  0
  2  3  1  0
  2  4  1  0
  4  5  1  0
  5  6  1  6
  7  6  1  1
  7  8  1  0
  8  9  1  0
  9 10  1  0
 10 11  1  0
  9  2  1  0
  7  5  1  0
 11  5  1  0
 11  7  1  0
  1 12  1  0
  1 13  1  0
  1 14  1  0
  3 15  1  0
  3 16  1  0
  3 17  1  0
  4 18  1  0
  4 19  1  0
  6 20  1  0
  6 21  1  0
  8 22  1  0
  8 23  1  0
  9 24  1  6
 10 25  1  0
 10 26  1  0
 11 27  1  1
M  END
$$$$
