
     RDKit          2D

 29 34  0  0  0  0  0  0  0  0999 V2000
    7.0379    3.2341    0.0000 C   0  0  0  0  0  0  0  0  0  0  0  0
    6.2879    1.9351    0.0000 C   0  0  0  0  0  0  0  0  0  0  0  0
    5.5379    0.6360    0.0000 C   0  0  0  0  0  0  0  0  0  0  0  0
    4.3888   -0.3281    0.0000 C   0  0  0  0  0  0  0  0  0  0  0  0
    2.9793    0.1849    0.0000 C   0  0  0  0  0  0  0  0  0  0  0  0
    1.8302    1.1491    0.0000 C   0  0  0  0  0  0  0  0  0  0  0  0
    2.7944    2.2981    0.0000 N   0  0  0  0  0  0  0  0  0  0  0  0
    0.8660    0.0000    0.0000 C   0  0  0  0  0  0  0  0  0  0  0  0
    1.5277   -1.0190    0.0000 F   0  0  0  0  0  0  0  0  0  0  0  0
   -0.4330    0.7500    0.0000 C   0  0  0  0  0  0  0  0  0  0  0  0
   -1.7321    0.0000    0.0000 C   0  0  0  0  0  0  0  0  0  0  0  0
   -1.7321    1.5000    0.0000 C   0  0  0  0  0  0  0  0  0  0  0  0
   -2.4821    2.7990    0.0000 N   0  0  0  0  0  0  0  0  0  0  0  0
   -0.4330   -0.7500    0.0000 C   0  0  0  0  0  0  0  0  0  0  0  0
    4.1283    1.1491    0.0000 N   0  0  0  0  0  0  0  0  0  0  0  0
    8.3369    2.4841    0.0000 H   0  0  0  0  0  0  0  0  0  0  0  0
    5.7388    3.9841    0.0000 H   0  0  0  0  0  0  0  0  0  0  0  0
    7.7879    4.5332    0.0000 H   0  0  0  0  0  0  0  0  0  0  0  0
    7.5869    1.1851    0.0000 H   0  0  0  0  0  0  0  0  0  0  0  0
    5.1187    2.6101    0.0000 H   0  0  0  0  0  0  0  0  0  0  0  0
    6.6869   -0.3281    0.0000 H   0  0  0  0  0  0  0  0  0  0  0  0
    4.6493   -1.8054    0.0000 H   0  0  0  0  0  0  0  0  0  0  0  0
    2.5046   -0.9335    0.0000 H   0  0  0  0  0  0  0  0  0  0  0  0
    0.6811    2.1132    0.0000 H   0  0  0  0  0  0  0  0  0  0  0  0
    2.2814    3.7077    0.0000 H   0  0  0  0  0  0  0  0  0  0  0  0
    4.1411    2.3924    0.0000 H   0  0  0  0  0  0  0  0  0  0  0  0
   -3.0311   -0.7500    0.0000 H   0  0  0  0  0  0  0  0  0  0  0  0
   -1.7321    4.0981    0.0000 H   0  0  0  0  0  0  0  0  0  0  0  0
   -3.9821    2.7990    0.0000 H   0  0  0  0  0  0  0  0  0  0  0  0
  1  2  1  0
  2  3  1  0
  3  4  1  0
  4  5  1  0
  5  6  1  0
  6  7  1  0
  6  8  1  0
  8  9  1  6
 10  8  1  1
 10 11  1  0
 11 12  1  0
 12 13  1  1
 12 14  1  0
  5 15  1  0
 15  3  1  0
 15  4  1  0
 14  8  1  1
 12 10  1  0
 14 10  1  0
 14 11  1  0
  1 16  1  0
  1 17  1  0
  1 18  1  0
  2 19  1  0
  2 20  1  0
  3 21  1  6
  4 22  1  1
  5 23  1  6
  6 24  1  6
  7 25  1  0
  7 26  1  0
 11 27  1  6
 13 28  1  0
 13 29  1  0
M  END
$$$$
