
     RDKit          2D

 86 91  0  0  0  0  0  0  0  0999 V2000
    3.3470    4.4870    0.0000 C   0  0  0  0  0  0  0  0  0  0  0  0
    2.8340    3.0774    0.0000 O   0  0  0  0  0  0  0  0  0  0  0  0
    3.7981    1.9284    0.0000 C   0  0  0  0  0  0  0  0  0  0  0  0
    4.9472    2.8925    0.0000 C   0  0  0  0  0  0  0  0  0  0  0  0
    6.0963    3.8567    0.0000 C   0  0  0  0  0  0  0  0  0  0  0  0
    7.2453    4.8209    0.0000 C   0  0  0  0  0  0  0  0  0  0  0  0
    7.0604    2.7077    0.0000 C   0  0  0  0  0  0  0  0  0  0  0  0
    2.6491    0.9642    0.0000 C   0  0  0  0  0  0  0  0  0  0  0  0
    1.5000    0.0000    0.0000 C   0  0  0  0  0  0  0  0  0  0  0  0
    0.7500   -1.2990    0.0000 C   0  0  0  0  0  0  0  0  0  0  0  0
   -0.7500   -1.2990    0.0000 C   0  0  0  0  0  0  0  0  0  0  0  0
   -1.5000    0.0000    0.0000 C   0  0  0  0  0  0  0  0  0  0  0  0
   -2.6491   -0.9642    0.0000 C   0  0  0  0  0  0  0  0  0  0  0  0
   -3.7981   -1.9284    0.0000 C   0  0  0  0  0  0  0  0  0  0  0  0
   -4.9472   -2.8925    0.0000 C   0  0  0  0  0  0  0  0  0  0  0  0
   -6.0963   -3.8567    0.0000 C   0  0  0  0  0  0  0  0  0  0  0  0
   -7.2453   -4.8209    0.0000 C   0  0  0  0  0  0  0  0  0  0  0  0
   -8.3944   -5.7851    0.0000 C   0  0  0  0  0  0  0  0  0  0  0  0
   -9.2113   -4.5271    0.0000 I   0  0  0  0  0  0  0  0  0  0  0  0
   -9.5435   -6.7493    0.0000 C   0  0  0  0  0  0  0  0  0  0  0  0
  -10.6925   -7.7135    0.0000 C   0  0  0  0  0  0  0  0  0  0  0  0
  -10.5076   -5.6002    0.0000 C   0  0  0  0  0  0  0  0  0  0  0  0
  -11.4718   -4.4511    0.0000 C   0  0  0  0  0  0  0  0  0  0  0  0
  -12.4360   -3.3021    0.0000 C   0  0  0  0  0  0  0  0  0  0  0  0
  -13.7350   -4.0521    0.0000 C   0  0  0  0  0  0  0  0  0  0  0  0
  -15.0341   -3.3021    0.0000 C   0  0  0  0  0  0  0  0  0  0  0  0
  -16.3331   -2.5521    0.0000 C   0  0  0  0  0  0  0  0  0  0  0  0
  -15.0341   -1.8021    0.0000 C   0  0  0  0  0  0  0  0  0  0  0  0
  -13.7350   -2.5521    0.0000 C   0  0  0  0  0  0  0  0  0  0  0  0
   -6.2812   -5.9700    0.0000 C   0  0  0  0  0  0  0  0  0  0  0  0
   -5.7681   -7.3795    0.0000 C   0  0  0  0  0  0  0  0  0  0  0  0
   -7.2453   -7.1190    0.0000 C   0  0  0  0  0  0  0  0  0  0  0  0
   -7.7584   -8.5286    0.0000 F   0  0  0  0  0  0  0  0  0  0  0  0
   -0.7500    1.2990    0.0000 N   0  0  0  0  0  0  0  0  0  0  0  0
    0.7500    1.2990    0.0000 C   0  0  0  0  0  0  0  0  0  0  0  0
    3.8600    5.8965    0.0000 H   0  0  0  0  0  0  0  0  0  0  0  0
    1.9374    5.0000    0.0000 H   0  0  0  0  0  0  0  0  0  0  0  0
    4.1237    4.3077    0.0000 H   0  0  0  0  0  0  0  0  0  0  0  0
    4.7623    0.7793    0.0000 H   0  0  0  0  0  0  0  0  0  0  0  0
    4.6877    3.6463    0.0000 H   0  0  0  0  0  0  0  0  0  0  0  0
    5.7641    1.6345    0.0000 H   0  0  0  0  0  0  0  0  0  0  0  0
    5.1321    5.0058    0.0000 H   0  0  0  0  0  0  0  0  0  0  0  0
    8.3944    5.7851    0.0000 H   0  0  0  0  0  0  0  0  0  0  0  0
    6.2812    5.9700    0.0000 H   0  0  0  0  0  0  0  0  0  0  0  0
    8.3424    3.7979    0.0000 H   0  0  0  0  0  0  0  0  0  0  0  0
    8.0246    1.5586    0.0000 H   0  0  0  0  0  0  0  0  0  0  0  0
    8.3185    3.5246    0.0000 H   0  0  0  0  0  0  0  0  0  0  0  0
    6.0375    1.6106    0.0000 H   0  0  0  0  0  0  0  0  0  0  0  0
    1.8321    2.2222    0.0000 H   0  0  0  0  0  0  0  0  0  0  0  0
    3.6132   -0.1849    0.0000 H   0  0  0  0  0  0  0  0  0  0  0  0
    2.6491   -0.9642    0.0000 H   0  0  0  0  0  0  0  0  0  0  0  0
    2.1595   -1.8121    0.0000 H   0  0  0  0  0  0  0  0  0  0  0  0
    0.4895   -2.7762    0.0000 H   0  0  0  0  0  0  0  0  0  0  0  0
   -0.4895   -2.7762    0.0000 H   0  0  0  0  0  0  0  0  0  0  0  0
   -2.0865   -1.9801    0.0000 H   0  0  0  0  0  0  0  0  0  0  0  0
   -2.6491    0.9642    0.0000 H   0  0  0  0  0  0  0  0  0  0  0  0
   -3.6132    0.1849    0.0000 H   0  0  0  0  0  0  0  0  0  0  0  0
   -1.8321   -2.2222    0.0000 H   0  0  0  0  0  0  0  0  0  0  0  0
   -4.7623   -0.7793    0.0000 H   0  0  0  0  0  0  0  0  0  0  0  0
   -2.8340   -3.0774    0.0000 H   0  0  0  0  0  0  0  0  0  0  0  0
   -3.9830   -4.0416    0.0000 H   0  0  0  0  0  0  0  0  0  0  0  0
   -5.9114   -1.7435    0.0000 H   0  0  0  0  0  0  0  0  0  0  0  0
   -7.0604   -2.7077    0.0000 H   0  0  0  0  0  0  0  0  0  0  0  0
   -4.9992   -4.8797    0.0000 H   0  0  0  0  0  0  0  0  0  0  0  0
   -8.2095   -3.6718    0.0000 H   0  0  0  0  0  0  0  0  0  0  0  0
   -7.7369   -7.1333    0.0000 H   0  0  0  0  0  0  0  0  0  0  0  0
   -8.5793   -7.8983    0.0000 H   0  0  0  0  0  0  0  0  0  0  0  0
  -11.8416   -8.6776    0.0000 H   0  0  0  0  0  0  0  0  0  0  0  0
  -11.7896   -6.6905    0.0000 H   0  0  0  0  0  0  0  0  0  0  0  0
   -9.7284   -8.8625    0.0000 H   0  0  0  0  0  0  0  0  0  0  0  0
  -11.7657   -6.4171    0.0000 H   0  0  0  0  0  0  0  0  0  0  0  0
   -9.4847   -4.5031    0.0000 H   0  0  0  0  0  0  0  0  0  0  0  0
  -12.6209   -5.4153    0.0000 H   0  0  0  0  0  0  0  0  0  0  0  0
  -10.3228   -3.4870    0.0000 H   0  0  0  0  0  0  0  0  0  0  0  0
  -11.4718   -2.1530    0.0000 H   0  0  0  0  0  0  0  0  0  0  0  0
  -13.7350   -5.5521    0.0000 H   0  0  0  0  0  0  0  0  0  0  0  0
  -17.2973   -3.7011    0.0000 H   0  0  0  0  0  0  0  0  0  0  0  0
  -17.2973   -1.4030    0.0000 H   0  0  0  0  0  0  0  0  0  0  0  0
  -15.0341   -0.3021    0.0000 H   0  0  0  0  0  0  0  0  0  0  0  0
   -4.9004   -5.3839    0.0000 H   0  0  0  0  0  0  0  0  0  0  0  0
   -4.2909   -7.1190    0.0000 H   0  0  0  0  0  0  0  0  0  0  0  0
   -5.7681   -8.8795    0.0000 H   0  0  0  0  0  0  0  0  0  0  0  0
   -8.6872   -6.7057    0.0000 H   0  0  0  0  0  0  0  0  0  0  0  0
   -1.5000    2.5981    0.0000 H   0  0  0  0  0  0  0  0  0  0  0  0
    0.4895    2.7762    0.0000 H   0  0  0  0  0  0  0  0  0  0  0  0
    2.0865    1.9801    0.0000 H   0  0  0  0  0  0  0  0  0  0  0  0
  1  2  1  0
  2  3  1  0
  3  4  1  0
  4  5  1  0
  5  6  1  0
  5  7  1  0
  3  8  1  0
  8  9  1  0
  9 10  1  0
 10 11  1  0
 11 12  1  0
 12 13  1  0
 13 14  1  0
 14 15  1  0
 15 16  1  0
 16 17  1  0
 17 18  1  0
 18 19  1  0
 18 20  1  0
 20 21  1  0
 20 22  1  0
 22 23  1  0
 23 24  1  0
 24 25  1  0
 25 26  1  0
 26 27  1  0
 27 28  1  0
 28 29  1  0
 17 30  1  0
 30 31  1  0
 31 32  1  0
 32 33  1  0
 12 34  1  0
 34 35  1  0
 35  9  1  0
 29 24  1  0
 32 30  1  0
 29 25  1  0
 28 26  1  0
 29 26  1  0
  1 36  1  0
  1 37  1  0
  1 38  1  0
  3 39  1  0
  4 40  1  0
  4 41  1  0
  5 42  1  0
  6 43  1  0
  6 44  1  0
  6 45  1  0
  7 46  1  0
  7 47  1  0
  7 48  1  0
  8 49  1  0
  8 50  1  0
  9 51  1  0
 10 52  1  0
 10 53  1  0
 11 54  1  0
 11 55  1  0
 12 56  1  0
 13 57  1  0
 13 58  1  0
 14 59  1  0
 14 60  1  0
 15 61  1  0
 15 62  1  0
 16 63  1  0
 16 64  1  0
 17 65  1  0
 18 66  1  0
 20 67  1  0
 21 68  1  0
 21 69  1  0
 21 70  1  0
 22 71  1  0
 22 72  1  0
 23 73  1  0
 23 74  1  0
 24 75  1  0
 25 76  1  0
 27 77  1  0
 27 78  1  0
 28 79  1  0
 30 80  1  0
 31 81  1  0
 31 82  1  0
 32 83  1  0
 34 84  1  0
 35 85  1  0
 35 86  1  0
M  END
$$$$
