
     RDKit          2D

 72 77  0  0  0  0  0  0  0  0999 V2000
    2.4810   -5.1914    0.0000 C   0  0  0  0  0  0  0  0  0  0  0  0
    1.1215   -4.5575    0.0000 C   0  0  0  0  0  0  0  0  0  0  0  0
    0.9908   -3.0632    0.0000 C   0  0  0  0  0  0  0  0  0  0  0  0
   -0.5035   -2.9325    0.0000 O   0  0  0  0  0  0  0  0  0  0  0  0
    0.3568   -1.7037    0.0000 C   0  0  0  0  0  0  0  0  0  0  0  0
    1.5856   -0.8434    0.0000 C   0  0  0  0  0  0  0  0  0  0  0  0
    2.8143    0.0170    0.0000 C   0  0  0  0  0  0  0  0  0  0  0  0
    3.5415   -1.2949    0.0000 O   0  0  0  0  0  1  0  0  0  0  0  0
    4.1951    0.6031    0.0000 N   0  0  0  0  0  2  0  0  0  0  0  0
    4.0643    2.0974    0.0000 C   0  0  0  0  0  0  0  0  0  0  0  0
    2.6028    2.4348    0.0000 C   0  0  0  0  0  0  0  0  0  0  0  0
    3.1647    3.8256    0.0000 C   0  0  0  0  0  0  0  0  0  0  0  0
    1.7739    4.3875    0.0000 B   0  0  0  0  0  0  0  0  0  0  0  0
    2.3358    5.7783    0.0000 C   0  0  0  0  0  0  0  0  0  0  0  0
    3.7266    5.2164    0.0000 C   0  0  0  0  0  0  0  0  0  0  0  0
    1.3170    3.2074    0.0000 N   0  0  0  0  0  0  0  0  0  0  0  0
    0.5445    1.9216    0.0000 O   0  0  0  0  0  0  0  0  0  0  0  0
    1.8302    1.1491    0.0000 S   0  0  0  0  0  4  0  0  0  0  0  0
    0.8660    0.0000    0.0000 C   0  0  0  0  0  0  0  0  0  0  0  0
   -0.4330    0.7500    0.0000 C   0  0  0  0  0  0  0  0  0  0  0  0
   -1.6058    1.6852    0.0000 C   0  0  0  0  0  0  0  0  0  0  0  0
   -0.4330    2.6205    0.0000 C   0  0  0  0  0  0  0  0  0  0  0  0
    0.7397    3.5557    0.0000 C   0  0  0  0  0  0  0  0  0  0  0  0
   -3.0682    1.3515    0.0000 C   0  0  0  0  0  0  0  0  0  0  0  0
   -3.0682    2.8515    0.0000 O   0  0  0  0  0  0  0  0  0  0  0  0
   -4.3672    3.6015    0.0000 C   0  0  0  0  0  0  0  0  0  0  0  0
   -5.6662    4.3515    0.0000 C   0  0  0  0  0  0  0  0  0  0  0  0
   -3.7190   -0.0000    0.0000 C   0  0  0  0  0  0  0  0  0  0  0  0
   -3.0682   -1.3515    0.0000 C   0  0  0  0  0  0  0  0  0  0  0  0
   -4.5305   -1.6852    0.0000 Mg  0  0  0  0  0  2  0  0  0  0  0  0
   -5.9929   -2.0190    0.0000 C   0  0  0  0  0  0  0  0  0  0  0  0
   -1.6058   -1.6852    0.0000 C   0  0  0  0  0  0  0  0  0  0  0  0
   -0.4330   -0.7500    0.0000 S   0  0  0  0  0  4  0  0  0  0  0  0
    2.6117   -6.6857    0.0000 H   0  0  0  0  0  0  0  0  0  0  0  0
    3.7097   -4.3310    0.0000 H   0  0  0  0  0  0  0  0  0  0  0  0
   -0.1072   -5.4178    0.0000 H   0  0  0  0  0  0  0  0  0  0  0  0
    2.4762   -2.8545    0.0000 H   0  0  0  0  0  0  0  0  0  0  0  0
   -1.0135   -1.0937    0.0000 H   0  0  0  0  0  0  0  0  0  0  0  0
    0.4534    0.1407    0.0000 H   0  0  0  0  0  0  0  0  0  0  0  0
    2.5893   -1.9581    0.0000 H   0  0  0  0  0  0  0  0  0  0  0  0
    5.5641    2.0712    0.0000 H   0  0  0  0  0  0  0  0  0  0  0  0
    4.2471    3.5862    0.0000 H   0  0  0  0  0  0  0  0  0  0  0  0
    1.7739    4.3875    0.0000 H   0  0  0  0  0  0  0  0  0  0  0  0
    0.2924    4.1529    0.0000 H   0  0  0  0  0  0  0  0  0  0  0  0
    2.8977    7.1691    0.0000 H   0  0  0  0  0  0  0  0  0  0  0  0
    0.9450    6.3402    0.0000 H   0  0  0  0  0  0  0  0  0  0  0  0
    5.1174    4.6545    0.0000 H   0  0  0  0  0  0  0  0  0  0  0  0
    4.2885    6.6071    0.0000 H   0  0  0  0  0  0  0  0  0  0  0  0
    0.4565    4.4360    0.0000 H   0  0  0  0  0  0  0  0  0  0  0  0
    1.5235   -1.3482    0.0000 H   0  0  0  0  0  0  0  0  0  0  0  0
   -1.5797   -0.2170    0.0000 H   0  0  0  0  0  0  0  0  0  0  0  0
   -1.9102    3.1540    0.0000 H   0  0  0  0  0  0  0  0  0  0  0  0
   -1.3682    3.7932    0.0000 H   0  0  0  0  0  0  0  0  0  0  0  0
    0.1907    1.2563    0.0000 H   0  0  0  0  0  0  0  0  0  0  0  0
    1.4993    4.8492    0.0000 H   0  0  0  0  0  0  0  0  0  0  0  0
   -0.1955    4.7285    0.0000 H   0  0  0  0  0  0  0  0  0  0  0  0
    1.3634    2.1915    0.0000 H   0  0  0  0  0  0  0  0  0  0  0  0
   -4.5305    1.6852    0.0000 H   0  0  0  0  0  0  0  0  0  0  0  0
   -5.2699    2.4035    0.0000 H   0  0  0  0  0  0  0  0  0  0  0  0
   -3.6172    4.9005    0.0000 H   0  0  0  0  0  0  0  0  0  0  0  0
   -6.9653    5.1015    0.0000 H   0  0  0  0  0  0  0  0  0  0  0  0
   -4.9162    5.6505    0.0000 H   0  0  0  0  0  0  0  0  0  0  0  0
   -6.4162    3.0524    0.0000 H   0  0  0  0  0  0  0  0  0  0  0  0
   -4.9970    0.7853    0.0000 H   0  0  0  0  0  0  0  0  0  0  0  0
   -5.0832   -0.6237    0.0000 H   0  0  0  0  0  0  0  0  0  0  0  0
   -3.2510   -2.8403    0.0000 H   0  0  0  0  0  0  0  0  0  0  0  0
   -7.4553   -2.3528    0.0000 H   0  0  0  0  0  0  0  0  0  0  0  0
   -6.3267   -0.5566    0.0000 H   0  0  0  0  0  0  0  0  0  0  0  0
   -5.6592   -3.4814    0.0000 H   0  0  0  0  0  0  0  0  0  0  0  0
   -2.0870   -3.1059    0.0000 H   0  0  0  0  0  0  0  0  0  0  0  0
   -0.6942   -2.8765    0.0000 H   0  0  0  0  0  0  0  0  0  0  0  0
    0.0870   -2.1570    0.0000 H   0  0  0  0  0  0  0  0  0  0  0  0
  1  2  2  3
  2  3  1  0
  3  4  1  0
  4  5  1  0
  5  6  1  0
  6  7  1  0
  7  8  1  0
  7  9  1  0
  9 10  1  0
 10 11  1  0
 11 12  1  0
 12 13  1  0
 13 14  1  0
 14 15  1  0
 11 16  1  0
 16 17  1  0
 17 18  1  0
 18 19  1  0
 19 20  1  0
 20 21  1  0
 21 22  1  0
 22 23  1  0
 21 24  1  0
 24 25  1  0
 25 26  1  0
 26 27  1  0
 24 28  1  0
 28 29  1  0
 29 30  1  0
 30 31  1  0
 29 32  1  0
 32 33  1  0
  5  3  1  0
 18  7  1  0
 33 19  1  0
 18 11  1  0
 33 20  1  0
 15 12  1  0
  1 34  1  0
  1 35  1  0
  2 36  1  0
  3 37  1  0
  5 38  1  0
  6 39  1  0
  6 40  1  0
 10 41  1  0
 10 42  1  0
 12 43  1  0
 13 44  1  0
 14 45  1  0
 14 46  1  0
 15 47  1  0
 15 48  1  0
 16 49  1  0
 19 50  1  0
 20 51  1  0
 21 52  1  0
 22 53  1  0
 22 54  1  0
 23 55  1  0
 23 56  1  0
 23 57  1  0
 24 58  1  0
 26 59  1  0
 26 60  1  0
 27 61  1  0
 27 62  1  0
 27 63  1  0
 28 64  1  0
 28 65  1  0
 29 66  1  0
 31 67  1  0
 31 68  1  0
 31 69  1  0
 32 70  1  0
 32 71  1  0
 33 72  1  0
M  RAD  2   8   2   9   2
M  END
$$$$
