
     RDKit          2D

 96107  0  0  0  0  0  0  0  0999 V2000
   -0.2505    5.0356    0.0000 C   0  0  0  0  0  0  0  0  0  0  0  0
   -1.6460    4.4855    0.0000 C   0  0  0  0  0  0  0  0  0  0  0  0
   -3.0217    5.0832    0.0000 C   0  0  0  0  0  0  0  0  0  0  0  0
   -4.8894    2.6890    0.0000 C   0  0  0  0  0  0  0  0  0  0  0  0
   -6.2722   -0.0061    0.0000 C   0  0  0  0  0  0  0  0  0  0  0  0
   -8.0639   -2.1989    0.0000 C   0  0  0  0  0  0  0  0  0  0  0  0
   -7.6757   -0.7500    0.0000 C   0  0  0  0  0  0  0  0  0  0  0  0
   -7.6757    0.7500    0.0000 C   0  0  0  0  0  0  0  0  0  0  0  0
   -9.0122    1.4310    0.0000 C   0  0  0  0  0  0  0  0  0  0  0  0
   -8.7775    2.9125    0.0000 C   0  0  0  0  0  0  0  0  0  0  0  0
  -10.2755    2.9910    0.0000 O   0  0  0  0  0  0  0  0  0  0  0  0
   -7.2960    3.1472    0.0000 C   0  0  0  0  0  0  0  0  0  0  0  0
   -6.6150    1.8107    0.0000 C   0  0  0  0  0  0  0  0  0  0  0  0
   -5.1150    1.8107    0.0000 O   0  0  0  0  0  0  0  0  0  0  0  0
   -4.0543    0.7500    0.0000 C   0  0  0  0  0  0  0  0  0  0  0  0
   -2.9937    1.8107    0.0000 C   0  0  0  0  0  0  0  0  0  0  0  0
   -1.4937    1.8107    0.0000 C   0  0  0  0  0  0  0  0  0  0  0  0
   -0.4330    0.7500    0.0000 C   0  0  0  0  0  0  0  0  0  0  0  0
    0.8660    0.0000    0.0000 O   0  0  0  0  0  0  0  0  0  0  0  0
   -0.4330   -0.7500    0.0000 C   0  0  0  0  0  0  0  0  0  0  0  0
    0.4801   -1.9400    0.0000 C   0  0  0  0  0  0  0  0  0  0  0  0
    1.3933   -3.1301    0.0000 C   0  0  0  0  0  0  0  0  0  0  0  0
   -0.7099   -2.8532    0.0000 C   0  0  0  0  0  0  0  0  0  0  0  0
   -1.4937   -1.8107    0.0000 C   0  0  0  0  0  0  0  0  0  0  0  0
   -1.8819   -3.2595    0.0000 C   0  0  0  0  0  0  0  0  0  0  0  0
   -2.2701   -4.7084    0.0000 C   0  0  0  0  0  0  0  0  0  0  0  0
   -0.4330   -3.6478    0.0000 N   0  0  0  0  0  0  0  0  0  0  0  0
   -2.9937   -1.8107    0.0000 O   0  0  0  0  0  0  0  0  0  0  0  0
   -4.0543   -0.7500    0.0000 C   0  0  0  0  0  0  0  0  0  0  0  0
   -4.0543   -2.2500    0.0000 F   0  0  0  0  0  0  0  0  0  0  0  0
   -5.1150   -1.8107    0.0000 O   0  0  0  0  0  0  0  0  0  0  0  0
   -6.6150   -1.8107    0.0000 C   0  0  0  0  0  0  0  0  0  0  0  0
   -5.2119   -0.3151    0.0000 C   0  0  0  0  0  0  0  0  0  0  0  0
   -7.3280   -0.0814    0.0000 C   0  0  0  0  0  0  0  0  0  0  0  0
   -2.2437    3.1097    0.0000 C   0  0  0  0  0  0  0  0  0  0  0  0
   -4.7275    4.1888    0.0000 S   0  0  0  0  0  4  0  0  0  0  0  0
   -6.2275    4.1999    0.0000 C   0  0  0  0  0  0  0  0  0  0  0  0
   -5.8285    5.6459    0.0000 N   0  0  0  0  0  0  0  0  0  0  0  0
   -7.5209    4.9595    0.0000 C   0  0  0  0  0  0  0  0  0  0  0  0
   -8.9440    5.4336    0.0000 C   0  0  0  0  0  0  0  0  0  0  0  0
   -8.9329    6.9336    0.0000 C   0  0  0  0  0  0  0  0  0  0  0  0
  -10.4258    6.7879    0.0000 C   0  0  0  0  0  0  0  0  0  0  0  0
   -7.5029    7.3865    0.0000 C   0  0  0  0  0  0  0  0  0  0  0  0
   -6.6303    6.1665    0.0000 C   0  0  0  0  0  0  0  0  0  0  0  0
   -5.5081    7.1619    0.0000 C   0  0  0  0  0  0  0  0  0  0  0  0
    0.9237    4.1022    0.0000 H   0  0  0  0  0  0  0  0  0  0  0  0
   -0.0292    6.5192    0.0000 H   0  0  0  0  0  0  0  0  0  0  0  0
   -3.5719    6.4786    0.0000 H   0  0  0  0  0  0  0  0  0  0  0  0
   -7.5145    1.5912    0.0000 H   0  0  0  0  0  0  0  0  0  0  0  0
   -6.2384    2.2698    0.0000 H   0  0  0  0  0  0  0  0  0  0  0  0
   -9.6882   -1.3641    0.0000 H   0  0  0  0  0  0  0  0  0  0  0  0
   -9.6479   -0.0029    0.0000 H   0  0  0  0  0  0  0  0  0  0  0  0
   -9.1245   -3.2595    0.0000 H   0  0  0  0  0  0  0  0  0  0  0  0
   -9.1756   -0.7370    0.0000 H   0  0  0  0  0  0  0  0  0  0  0  0
   -9.1506    0.4768    0.0000 H   0  0  0  0  0  0  0  0  0  0  0  0
  -10.3487    0.7500    0.0000 H   0  0  0  0  0  0  0  0  0  0  0  0
   -9.0380    4.3897    0.0000 H   0  0  0  0  0  0  0  0  0  0  0  0
  -10.9564    4.3275    0.0000 H   0  0  0  0  0  0  0  0  0  0  0  0
   -6.9586    4.6087    0.0000 H   0  0  0  0  0  0  0  0  0  0  0  0
   -5.8312    3.0896    0.0000 H   0  0  0  0  0  0  0  0  0  0  0  0
   -4.0543    2.2500    0.0000 H   0  0  0  0  0  0  0  0  0  0  0  0
   -1.5101    1.5890    0.0000 H   0  0  0  0  0  0  0  0  0  0  0  0
    0.4801    1.9400    0.0000 H   0  0  0  0  0  0  0  0  0  0  0  0
    1.6702   -1.0269    0.0000 H   0  0  0  0  0  0  0  0  0  0  0  0
    2.3064   -4.3201    0.0000 H   0  0  0  0  0  0  0  0  0  0  0  0
    2.5833   -2.2169    0.0000 H   0  0  0  0  0  0  0  0  0  0  0  0
    0.6096   -4.4091    0.0000 H   0  0  0  0  0  0  0  0  0  0  0  0
   -1.6436   -4.0271    0.0000 H   0  0  0  0  0  0  0  0  0  0  0  0
    0.3415   -3.9230    0.0000 H   0  0  0  0  0  0  0  0  0  0  0  0
   -1.8839   -1.9195    0.0000 H   0  0  0  0  0  0  0  0  0  0  0  0
   -0.2957   -2.7134    0.0000 H   0  0  0  0  0  0  0  0  0  0  0  0
   -3.3308   -2.8713    0.0000 H   0  0  0  0  0  0  0  0  0  0  0  0
   -2.6584   -6.1573    0.0000 H   0  0  0  0  0  0  0  0  0  0  0  0
   -3.7190   -4.3202    0.0000 H   0  0  0  0  0  0  0  0  0  0  0  0
   -0.8794   -5.2704    0.0000 H   0  0  0  0  0  0  0  0  0  0  0  0
    0.1289   -5.0385    0.0000 H   0  0  0  0  0  0  0  0  0  0  0  0
    0.9374   -3.0378    0.0000 H   0  0  0  0  0  0  0  0  0  0  0  0
   -5.8008    0.9985    0.0000 H   0  0  0  0  0  0  0  0  0  0  0  0
   -8.8089    0.1574    0.0000 H   0  0  0  0  0  0  0  0  0  0  0  0
   -8.3732   -1.1573    0.0000 H   0  0  0  0  0  0  0  0  0  0  0  0
   -6.4217    1.1139    0.0000 H   0  0  0  0  0  0  0  0  0  0  0  0
   -4.3416    5.8436    0.0000 H   0  0  0  0  0  0  0  0  0  0  0  0
   -6.5914    6.9374    0.0000 H   0  0  0  0  0  0  0  0  0  0  0  0
   -8.1412    3.5938    0.0000 H   0  0  0  0  0  0  0  0  0  0  0  0
   -9.4429    4.0190    0.0000 H   0  0  0  0  0  0  0  0  0  0  0  0
  -10.4440    5.4185    0.0000 H   0  0  0  0  0  0  0  0  0  0  0  0
   -9.2339    8.4031    0.0000 H   0  0  0  0  0  0  0  0  0  0  0  0
  -11.9187    6.6422    0.0000 H   0  0  0  0  0  0  0  0  0  0  0  0
  -10.5715    8.2808    0.0000 H   0  0  0  0  0  0  0  0  0  0  0  0
  -10.4632    5.2883    0.0000 H   0  0  0  0  0  0  0  0  0  0  0  0
   -8.1028    8.7613    0.0000 H   0  0  0  0  0  0  0  0  0  0  0  0
   -6.2983    8.2804    0.0000 H   0  0  0  0  0  0  0  0  0  0  0  0
   -5.3111    5.4526    0.0000 H   0  0  0  0  0  0  0  0  0  0  0  0
   -4.3860    8.1573    0.0000 H   0  0  0  0  0  0  0  0  0  0  0  0
   -6.3593    8.3970    0.0000 H   0  0  0  0  0  0  0  0  0  0  0  0
   -4.3834    6.1695    0.0000 H   0  0  0  0  0  0  0  0  0  0  0  0
  1  2  2  3
  2  3  1  0
  3  4  1  0
  4  5  1  0
  5  6  1  0
  6  7  1  0
  7  8  1  0
  8  9  1  0
  9 10  1  0
 10 11  1  0
 10 12  1  0
 12 13  1  0
 13 14  1  0
 14 15  1  0
 15 16  1  0
 16 17  1  0
 17 18  1  0
 18 19  1  0
 19 20  1  0
 20 21  1  0
 21 22  1  0
 21 23  1  0
 20 24  1  0
 24 25  1  0
 25 26  1  0
 25 27  1  0
 24 28  1  0
 28 29  1  0
 29 30  1  6
 29 31  1  0
 32 31  1  1
 32 33  1  0
 33 34  1  0
 17 35  1  1
 35 36  1  0
 36 37  1  6
 37 38  1  6
 37 39  1  0
 39 40  1  0
 40 41  1  0
 41 42  1  0
 41 43  1  0
 43 44  1  0
 44 45  1  0
 35  2  1  1
 44 39  1  0
 36  3  1  0
 32  6  1  0
 32  7  1  0
 13  8  1  0
 29 15  1  0
 36  9  1  0
 37 12  1  0
 35 16  1  0
 33 17  1  0
 20 18  1  0
  1 46  1  0
  1 47  1  0
  3 48  1  6
  4 49  1  0
  4 50  1  0
  5 51  1  0
  5 52  1  0
  6 53  1  1
  7 54  1  6
  8 55  1  6
  9 56  1  6
 10 57  1  6
 11 58  1  0
 12 59  1  6
 13 60  1  1
 15 61  1  6
 16 62  1  6
 18 63  1  1
 21 64  1  0
 22 65  1  0
 22 66  1  0
 22 67  1  0
 23 68  1  0
 23 69  1  0
 23 70  1  0
 24 71  1  1
 25 72  1  6
 26 73  1  0
 26 74  1  0
 26 75  1  0
 27 76  1  0
 27 77  1  0
 33 78  1  1
 34 79  1  0
 34 80  1  0
 34 81  1  0
 38 82  1  0
 38 83  1  0
 39 84  1  1
 40 85  1  0
 40 86  1  0
 41 87  1  1
 42 88  1  0
 42 89  1  0
 42 90  1  0
 43 91  1  0
 43 92  1  0
 44 93  1  6
 45 94  1  0
 45 95  1  0
 45 96  1  0
M  END
$$$$
