
     RDKit          2D

 83 89  0  0  0  0  0  0  0  0999 V2000
   -4.7521    0.2761    0.0000 C   0  0  0  0  0  0  0  0  0  0  0  0
   -3.3426   -0.2370    0.0000 C   0  0  0  0  0  0  0  0  0  0  0  0
   -1.9330   -0.7500    0.0000 C   0  0  0  0  0  0  0  0  0  0  0  0
   -1.1830    0.5490    0.0000 C   0  0  0  0  0  0  0  0  0  0  0  0
    0.1160    1.2990    0.0000 C   0  0  0  0  0  0  0  0  0  0  0  0
    0.8660    0.0000    0.0000 C   0  0  0  0  0  0  0  0  0  0  0  0
   -0.4330   -0.7500    0.0000 C   0  0  0  0  0  0  0  0  0  0  0  0
   -0.0448   -2.1989    0.0000 C   0  0  0  0  0  0  0  0  0  0  0  0
    1.4495   -2.0682    0.0000 C   0  0  0  0  0  0  0  0  0  0  0  0
    2.0834   -0.7087    0.0000 O   0  0  0  0  0  0  0  0  0  0  0  0
    2.3099   -3.2969    0.0000 C   0  0  0  0  0  0  0  0  0  0  0  0
    3.6693   -2.6630    0.0000 C   0  0  0  0  0  0  0  0  0  0  0  0
    0.8156   -3.4276    0.0000 C   0  0  0  0  0  0  0  0  0  0  0  0
    0.1817   -4.7871    0.0000 O   0  0  0  0  0  0  0  0  0  0  0  0
    1.0420   -6.0158    0.0000 Al  0  0  0  0  0  3  0  0  0  0  0  0
    0.4081   -7.3753    0.0000 C   0  0  0  0  0  0  0  0  0  0  0  0
   -0.9514   -6.7413    0.0000 C   0  0  0  0  0  0  0  0  0  0  0  0
    1.7676   -8.0092    0.0000 O   0  0  0  0  0  0  0  0  0  0  0  0
    2.5363   -5.8851    0.0000 S   0  0  0  0  0  4  0  0  0  0  0  0
    2.4056   -4.3908    0.0000 O   0  0  0  0  0  0  0  0  0  0  0  0
    4.0306   -5.7543    0.0000 O   0  0  0  0  0  0  0  0  0  0  0  0
    2.6670   -7.3794    0.0000 C   0  0  0  0  0  0  0  0  0  0  0  0
    2.7978   -8.8737    0.0000 C   0  0  0  0  0  0  0  0  0  0  0  0
    2.9285  -10.3679    0.0000 C   0  0  0  0  0  0  0  0  0  0  0  0
    3.5624  -11.7274    0.0000 C   0  0  0  0  0  0  0  0  0  0  0  0
    4.4228  -10.4987    0.0000 C   0  0  0  0  0  0  0  0  0  0  0  0
    5.7823  -11.1326    0.0000 C   0  0  0  0  0  0  0  0  0  0  0  0
    7.1417  -11.7665    0.0000 C   0  0  0  0  0  0  0  0  0  0  0  0
    8.5012  -12.4005    0.0000 C   0  0  0  0  0  0  0  0  0  0  0  0
    9.8606  -13.0344    0.0000 C   0  0  0  0  0  0  0  0  0  0  0  0
   11.2201  -13.6683    0.0000 C   0  0  0  0  0  0  0  0  0  0  0  0
   12.1843  -12.5193    0.0000 C   0  0  0  0  0  0  0  0  0  0  0  0
   12.6973  -13.9288    0.0000 C   0  0  0  0  0  0  0  0  0  0  0  0
   12.4369  -15.4060    0.0000 C   0  0  0  0  0  0  0  0  0  0  0  0
   12.1764  -16.8832    0.0000 C   0  0  0  0  0  0  0  0  0  0  0  0
   13.3254  -17.8474    0.0000 O   0  0  0  0  0  0  0  0  0  0  0  0
   10.9596  -15.1455    0.0000 N   0  0  0  0  0  0  0  0  0  0  0  0
   -6.1616    0.7891    0.0000 H   0  0  0  0  0  0  0  0  0  0  0  0
   -5.2651   -1.1335    0.0000 H   0  0  0  0  0  0  0  0  0  0  0  0
   -4.2391    1.6856    0.0000 H   0  0  0  0  0  0  0  0  0  0  0  0
   -3.0052    1.2246    0.0000 H   0  0  0  0  0  0  0  0  0  0  0  0
   -3.8556   -1.6465    0.0000 H   0  0  0  0  0  0  0  0  0  0  0  0
   -2.1935   -2.2272    0.0000 H   0  0  0  0  0  0  0  0  0  0  0  0
   -2.1065    1.7311    0.0000 H   0  0  0  0  0  0  0  0  0  0  0  0
    1.4151    2.0490    0.0000 H   0  0  0  0  0  0  0  0  0  0  0  0
   -0.6340    2.5981    0.0000 H   0  0  0  0  0  0  0  0  0  0  0  0
    1.5421   -0.4224    0.0000 H   0  0  0  0  0  0  0  0  0  0  0  0
    2.1651    0.7500    0.0000 H   0  0  0  0  0  0  0  0  0  0  0  0
   -1.4042   -2.8328    0.0000 H   0  0  0  0  0  0  0  0  0  0  0  0
    3.5506   -0.3968    0.0000 H   0  0  0  0  0  0  0  0  0  0  0  0
    3.0372   -4.6088    0.0000 H   0  0  0  0  0  0  0  0  0  0  0  0
    5.0288   -2.0290    0.0000 H   0  0  0  0  0  0  0  0  0  0  0  0
    4.4642   -3.9350    0.0000 H   0  0  0  0  0  0  0  0  0  0  0  0
    3.2058   -1.2364    0.0000 H   0  0  0  0  0  0  0  0  0  0  0  0
   -0.2258   -8.7347    0.0000 H   0  0  0  0  0  0  0  0  0  0  0  0
   -2.3108   -6.1074    0.0000 H   0  0  0  0  0  0  0  0  0  0  0  0
   -1.5853   -8.1008    0.0000 H   0  0  0  0  0  0  0  0  0  0  0  0
   -0.6652   -5.2689    0.0000 H   0  0  0  0  0  0  0  0  0  0  0  0
    1.7152   -9.5083    0.0000 H   0  0  0  0  0  0  0  0  0  0  0  0
    3.7300   -3.6866    0.0000 H   0  0  0  0  0  0  0  0  0  0  0  0
    5.0343   -6.8690    0.0000 H   0  0  0  0  0  0  0  0  0  0  0  0
    1.4091   -8.1965    0.0000 H   0  0  0  0  0  0  0  0  0  0  0  0
    4.1661   -7.4318    0.0000 H   0  0  0  0  0  0  0  0  0  0  0  0
    4.2650   -8.5617    0.0000 H   0  0  0  0  0  0  0  0  0  0  0  0
    1.3306   -9.1856    0.0000 H   0  0  0  0  0  0  0  0  0  0  0  0
    1.4796  -10.7562    0.0000 H   0  0  0  0  0  0  0  0  0  0  0  0
    2.3337  -12.5878    0.0000 H   0  0  0  0  0  0  0  0  0  0  0  0
    4.4859  -12.9095    0.0000 H   0  0  0  0  0  0  0  0  0  0  0  0
    4.9848   -9.1079    0.0000 H   0  0  0  0  0  0  0  0  0  0  0  0
    6.4162   -9.7731    0.0000 H   0  0  0  0  0  0  0  0  0  0  0  0
    5.3188  -12.5592    0.0000 H   0  0  0  0  0  0  0  0  0  0  0  0
    6.5078  -13.1260    0.0000 H   0  0  0  0  0  0  0  0  0  0  0  0
    7.7757  -10.4071    0.0000 H   0  0  0  0  0  0  0  0  0  0  0  0
    9.1351  -11.0410    0.0000 H   0  0  0  0  0  0  0  0  0  0  0  0
    7.8673  -13.7599    0.0000 H   0  0  0  0  0  0  0  0  0  0  0  0
    9.2267  -14.3939    0.0000 H   0  0  0  0  0  0  0  0  0  0  0  0
   10.3241  -11.6078    0.0000 H   0  0  0  0  0  0  0  0  0  0  0  0
   11.3674  -11.2612    0.0000 H   0  0  0  0  0  0  0  0  0  0  0  0
   13.4833  -11.7693    0.0000 H   0  0  0  0  0  0  0  0  0  0  0  0
   14.1916  -13.7981    0.0000 H   0  0  0  0  0  0  0  0  0  0  0  0
   13.9141  -15.6665    0.0000 H   0  0  0  0  0  0  0  0  0  0  0  0
   10.7668  -17.3962    0.0000 H   0  0  0  0  0  0  0  0  0  0  0  0
    9.7309  -16.0059    0.0000 H   0  0  0  0  0  0  0  0  0  0  0  0
  1  2  1  0
  2  3  1  0
  3  4  1  0
  4  5  1  0
  5  6  1  0
  7  6  1  6
  7  8  1  0
  8  9  1  0
  9 10  1  6
  9 11  1  0
 11 12  1  0
 11 13  1  0
 13 14  1  1
 14 15  1  0
 15 16  1  0
 16 17  1  0
 16 18  1  0
 15 19  1  0
 19 20  1  0
 19 21  1  0
 19 22  1  0
 22 23  1  0
 23 24  1  0
 24 25  1  0
 25 26  1  0
 26 27  1  0
 27 28  1  0
 28 29  1  0
 29 30  1  0
 31 30  1  6
 31 32  1  0
 32 33  1  0
 33 34  1  0
 34 35  1  0
 35 36  2  0
 34 37  1  0
  7  3  1  0
 13  8  1  0
 26 24  1  0
 33 31  1  0
  7  4  1  0
 13  9  1  0
 37 31  1  0
  1 38  1  0
  1 39  1  0
  1 40  1  0
  2 41  1  0
  2 42  1  0
  3 43  1  6
  4 44  1  6
  5 45  1  0
  5 46  1  0
  6 47  1  0
  6 48  1  0
  8 49  1  6
 10 50  1  0
 11 51  1  1
 12 52  1  0
 12 53  1  0
 12 54  1  0
 16 55  1  1
 17 56  1  0
 17 57  1  0
 17 58  1  0
 18 59  1  0
 20 60  1  0
 21 61  1  0
 22 62  1  0
 22 63  1  0
 23 64  1  0
 23 65  1  0
 24 66  1  0
 25 67  1  0
 25 68  1  0
 26 69  1  1
 27 70  1  0
 27 71  1  0
 28 72  1  0
 28 73  1  0
 29 74  1  0
 29 75  1  0
 30 76  1  0
 30 77  1  0
 32 78  1  0
 32 79  1  0
 33 80  1  1
 34 81  1  1
 35 82  1  0
 37 83  1  0
M  END
$$$$
