
     RDKit          2D

 76 84  0  0  0  0  0  0  0  0999 V2000
    2.7941  -12.9530    0.0000 C   0  0  0  0  0  0  0  0  0  0  0  0
    1.9125  -11.7395    0.0000 C   0  0  0  0  0  0  0  0  0  0  0  0
    2.5226  -10.3692    0.0000 C   0  0  0  0  0  0  0  0  0  0  0  0
    3.6373  -11.3729    0.0000 C   0  0  0  0  0  0  0  0  0  0  0  0
    4.9363  -10.6229    0.0000 C   0  0  0  0  0  0  0  0  0  0  0  0
    4.6244   -9.1557    0.0000 C   0  0  0  0  0  0  0  0  0  0  0  0
    3.1327   -8.9989    0.0000 C   0  0  0  0  0  0  0  0  0  0  0  0
    2.0179   -7.9952    0.0000 C   0  0  0  0  0  0  0  0  0  0  0  0
    3.3170   -7.2452    0.0000 C   0  0  0  0  0  0  0  0  0  0  0  0
    2.5670   -5.9462    0.0000 C   0  0  0  0  0  0  0  0  0  0  0  0
    1.8170   -4.6471    0.0000 C   0  0  0  0  0  0  0  0  0  0  0  0
    1.0670   -3.3481    0.0000 C   0  0  0  0  0  0  0  0  0  0  0  0
    0.3170   -2.0490    0.0000 C   0  0  0  0  0  0  0  0  0  0  0  0
    1.6160   -1.2990    0.0000 C   0  0  0  0  0  0  0  0  0  0  0  0
    3.0649   -1.6873    0.0000 C   0  0  0  0  0  0  0  0  0  0  0  0
    0.8660    0.0000    0.0000 C   0  0  0  0  0  0  0  0  0  0  0  0
   -0.4330    0.7500    0.0000 C   0  0  0  0  0  0  0  0  0  0  0  0
   -0.4330    2.2500    0.0000 C   0  0  0  0  0  0  0  0  0  0  0  0
   -1.7321    3.0000    0.0000 C   0  0  0  0  0  0  0  0  0  0  0  0
   -1.7321    4.5000    0.0000 C   0  0  0  0  0  0  0  0  0  0  0  0
   -1.2190    5.9095    0.0000 C   0  0  0  0  0  0  0  0  0  0  0  0
   -3.0311    5.2500    0.0000 C   0  0  0  0  0  0  0  0  0  0  0  0
   -4.3301    4.5000    0.0000 C   0  0  0  0  0  0  0  0  0  0  0  0
   -4.3301    3.0000    0.0000 C   0  0  0  0  0  0  0  0  0  0  0  0
   -3.0311    2.2500    0.0000 C   0  0  0  0  0  0  0  0  0  0  0  0
   -3.0311    0.7500    0.0000 O   0  0  0  0  0  0  0  0  0  0  0  0
   -1.7321    0.0000    0.0000 C   0  0  0  0  0  0  0  0  0  0  0  0
   -2.4821   -1.2990    0.0000 C   0  0  0  0  0  0  0  0  0  0  0  0
   -3.2321   -2.5981    0.0000 C   0  0  0  0  0  0  0  0  0  0  0  0
   -0.4330   -0.7500    0.0000 C   0  0  0  0  0  0  0  0  0  0  0  0
    1.2679   -6.6962    0.0000 C   0  0  0  0  0  0  0  0  0  0  0  0
   -0.0311   -7.4462    0.0000 C   0  0  0  0  0  0  0  0  0  0  0  0
    0.7189   -8.7452    0.0000 C   0  0  0  0  0  0  0  0  0  0  0  0
    1.0308  -10.2124    0.0000 C   0  0  0  0  0  0  0  0  0  0  0  0
    2.1840  -14.3234    0.0000 H   0  0  0  0  0  0  0  0  0  0  0  0
    3.5912  -12.9670    0.0000 H   0  0  0  0  0  0  0  0  0  0  0  0
    0.4509  -12.0770    0.0000 H   0  0  0  0  0  0  0  0  0  0  0  0
    3.8437  -12.1429    0.0000 H   0  0  0  0  0  0  0  0  0  0  0  0
    6.3066  -11.2330    0.0000 H   0  0  0  0  0  0  0  0  0  0  0  0
    6.1162   -8.9989    0.0000 H   0  0  0  0  0  0  0  0  0  0  0  0
    4.8073   -7.6669    0.0000 H   0  0  0  0  0  0  0  0  0  0  0  0
    3.9053   -7.7132    0.0000 H   0  0  0  0  0  0  0  0  0  0  0  0
    4.6160   -6.4952    0.0000 H   0  0  0  0  0  0  0  0  0  0  0  0
    4.0670   -8.5442    0.0000 H   0  0  0  0  0  0  0  0  0  0  0  0
    3.8660   -5.1962    0.0000 H   0  0  0  0  0  0  0  0  0  0  0  0
    3.1978   -4.0611    0.0000 H   0  0  0  0  0  0  0  0  0  0  0  0
    0.4362   -5.2332    0.0000 H   0  0  0  0  0  0  0  0  0  0  0  0
    2.3660   -2.5981    0.0000 H   0  0  0  0  0  0  0  0  0  0  0  0
   -0.2321   -4.0981    0.0000 H   0  0  0  0  0  0  0  0  0  0  0  0
   -0.8809   -2.9518    0.0000 H   0  0  0  0  0  0  0  0  0  0  0  0
    3.6269   -3.0780    0.0000 H   0  0  0  0  0  0  0  0  0  0  0  0
    4.1256   -0.6266    0.0000 H   0  0  0  0  0  0  0  0  0  0  0  0
    1.9267    1.0607    0.0000 H   0  0  0  0  0  0  0  0  0  0  0  0
    0.4058    3.4935    0.0000 H   0  0  0  0  0  0  0  0  0  0  0  0
    1.0442    1.9895    0.0000 H   0  0  0  0  0  0  0  0  0  0  0  0
   -0.4330    3.7500    0.0000 H   0  0  0  0  0  0  0  0  0  0  0  0
   -0.2357    4.6047    0.0000 H   0  0  0  0  0  0  0  0  0  0  0  0
   -0.7060    7.3191    0.0000 H   0  0  0  0  0  0  0  0  0  0  0  0
    0.1905    5.3965    0.0000 H   0  0  0  0  0  0  0  0  0  0  0  0
   -2.5555    6.5906    0.0000 H   0  0  0  0  0  0  0  0  0  0  0  0
   -3.2139    6.7388    0.0000 H   0  0  0  0  0  0  0  0  0  0  0  0
   -5.6292    5.2500    0.0000 H   0  0  0  0  0  0  0  0  0  0  0  0
   -5.0111    1.6635    0.0000 H   0  0  0  0  0  0  0  0  0  0  0  0
   -5.8073    3.2605    0.0000 H   0  0  0  0  0  0  0  0  0  0  0  0
   -4.2290    1.3472    0.0000 H   0  0  0  0  0  0  0  0  0  0  0  0
   -3.7811   -0.5490    0.0000 H   0  0  0  0  0  0  0  0  0  0  0  0
   -1.2841   -2.2018    0.0000 H   0  0  0  0  0  0  0  0  0  0  0  0
   -3.9821   -3.8971    0.0000 H   0  0  0  0  0  0  0  0  0  0  0  0
   -4.5311   -1.8481    0.0000 H   0  0  0  0  0  0  0  0  0  0  0  0
   -1.9330   -3.3481    0.0000 H   0  0  0  0  0  0  0  0  0  0  0  0
    0.3652   -5.4982    0.0000 H   0  0  0  0  0  0  0  0  0  0  0  0
   -1.3301   -8.1962    0.0000 H   0  0  0  0  0  0  0  0  0  0  0  0
   -0.7811   -6.1471    0.0000 H   0  0  0  0  0  0  0  0  0  0  0  0
   -0.6815   -9.2827    0.0000 H   0  0  0  0  0  0  0  0  0  0  0  0
   -0.4610  -10.3692    0.0000 H   0  0  0  0  0  0  0  0  0  0  0  0
    0.8479  -11.7012    0.0000 H   0  0  0  0  0  0  0  0  0  0  0  0
  1  2  2  3
  2  3  1  0
  3  4  1  0
  4  5  2  0
  5  6  1  0
  6  7  1  0
  7  8  1  0
  8  9  1  0
  9 10  1  0
 10 11  1  0
 11 12  1  0
 12 13  1  0
 13 14  1  0
 14 15  2  3
 14 16  1  0
 16 17  1  0
 17 18  1  0
 18 19  1  0
 19 20  1  0
 20 21  1  0
 20 22  1  0
 22 23  2  0
 23 24  1  0
 24 25  1  0
 25 26  1  0
 26 27  1  0
 27 28  1  0
 28 29  1  0
 27 30  1  0
 10 31  1  0
 31 32  1  0
 32 33  1  0
 33 34  1  0
  7  3  1  0
 31  8  1  0
 34  3  1  0
 33  8  1  0
 30 13  1  0
 30 16  1  0
 27 17  1  0
 30 17  1  0
 25 19  1  0
  1 35  1  0
  1 36  1  0
  2 37  1  0
  4 38  1  0
  5 39  1  0
  6 40  1  0
  6 41  1  0
  7 42  1  0
  9 43  1  0
  9 44  1  0
 10 45  1  0
 11 46  1  0
 11 47  1  0
 12 48  1  0
 12 49  1  0
 13 50  1  0
 15 51  1  0
 15 52  1  0
 16 53  1  0
 18 54  1  0
 18 55  1  0
 19 56  1  0
 20 57  1  0
 21 58  1  0
 21 59  1  0
 21 60  1  0
 22 61  1  0
 23 62  1  0
 24 63  1  0
 24 64  1  0
 25 65  1  0
 28 66  1  0
 28 67  1  0
 29 68  1  0
 29 69  1  0
 29 70  1  0
 31 71  1  0
 32 72  1  0
 32 73  1  0
 33 74  1  0
 34 75  1  0
 34 76  1  0
M  END
$$$$
