
     RDKit          2D

 64 69  0  0  0  0  0  0  0  0999 V2000
   -5.1010   -3.3107    0.0000 C   0  0  0  0  0  0  0  0  0  0  0  0
   -3.8019   -2.5607    0.0000 C   0  0  0  0  0  0  0  0  0  0  0  0
   -3.8019   -1.0607    0.0000 C   0  0  0  0  0  0  0  0  0  0  0  0
   -4.8626    0.0000    0.0000 C   0  0  0  0  0  0  0  0  0  0  0  0
   -3.8019    1.0607    0.0000 C   0  0  0  0  0  0  0  0  0  0  0  0
   -2.7413    0.0000    0.0000 C   0  0  0  0  0  0  0  0  0  0  0  0
   -1.8596    1.2135    0.0000 C   0  0  0  0  0  0  0  0  0  0  0  0
   -0.4330    0.7500    0.0000 N   0  0  0  0  0  0  0  0  0  0  0  0
    0.8660    0.0000    0.0000 C   0  0  0  0  0  0  0  0  0  0  0  0
   -0.4330   -0.7500    0.0000 C   0  0  0  0  0  0  0  0  0  0  0  0
   -1.8596   -1.2135    0.0000 C   0  0  0  0  0  0  0  0  0  0  0  0
   -1.2495   -2.5838    0.0000 C   0  0  0  0  0  0  0  0  0  0  0  0
   -2.6198   -3.1939    0.0000 O   0  0  0  0  0  0  0  0  0  0  0  0
   -2.0097   -4.5643    0.0000 C   0  0  0  0  0  0  0  0  0  0  0  0
   -1.3996   -5.9346    0.0000 C   0  0  0  0  0  0  0  0  0  0  0  0
   -0.7895   -7.3049    0.0000 C   0  0  0  0  0  0  0  0  0  0  0  0
   -0.1794   -8.6752    0.0000 C   0  0  0  0  0  0  0  0  0  0  0  0
    0.4307  -10.0455    0.0000 C   0  0  0  0  0  0  0  0  0  0  0  0
    1.0408  -11.4159    0.0000 C   0  0  0  0  0  0  0  0  0  0  0  0
    1.6509  -12.7862    0.0000 C   0  0  0  0  0  0  0  0  0  0  0  0
   -0.0293   -5.3245    0.0000 C   0  0  0  0  0  0  0  0  0  0  0  0
    1.3410   -4.7144    0.0000 C   0  0  0  0  0  0  0  0  0  0  0  0
    0.9782   -3.2589    0.0000 C   0  0  0  0  0  0  0  0  0  0  0  0
    2.8374   -4.6097    0.0000 C   0  0  0  0  0  0  0  0  0  0  0  0
    2.1798   -5.9579    0.0000 C   0  0  0  0  0  0  0  0  0  0  0  0
    3.3934   -6.8396    0.0000 O   0  0  0  0  0  0  0  0  0  0  0  0
   -0.6394   -3.9542    0.0000 C   0  0  0  0  0  0  0  0  0  0  0  0
   -6.4000   -4.0607    0.0000 H   0  0  0  0  0  0  0  0  0  0  0  0
   -4.3510   -4.6097    0.0000 H   0  0  0  0  0  0  0  0  0  0  0  0
   -5.8510   -2.0116    0.0000 H   0  0  0  0  0  0  0  0  0  0  0  0
   -3.2285   -3.1144    0.0000 H   0  0  0  0  0  0  0  0  0  0  0  0
   -5.9233   -1.0607    0.0000 H   0  0  0  0  0  0  0  0  0  0  0  0
   -5.9233    1.0607    0.0000 H   0  0  0  0  0  0  0  0  0  0  0  0
   -4.8626    2.1213    0.0000 H   0  0  0  0  0  0  0  0  0  0  0  0
   -2.8785    2.2427    0.0000 H   0  0  0  0  0  0  0  0  0  0  0  0
   -3.0575    2.1163    0.0000 H   0  0  0  0  0  0  0  0  0  0  0  0
   -1.2495    2.5838    0.0000 H   0  0  0  0  0  0  0  0  0  0  0  0
    1.8302    1.1491    0.0000 H   0  0  0  0  0  0  0  0  0  0  0  0
    1.8302   -1.1491    0.0000 H   0  0  0  0  0  0  0  0  0  0  0  0
    0.4905   -1.9320    0.0000 H   0  0  0  0  0  0  0  0  0  0  0  0
   -3.1586   -1.9635    0.0000 H   0  0  0  0  0  0  0  0  0  0  0  0
    0.1208   -1.9737    0.0000 H   0  0  0  0  0  0  0  0  0  0  0  0
   -3.3800   -5.1744    0.0000 H   0  0  0  0  0  0  0  0  0  0  0  0
   -2.7699   -6.5447    0.0000 H   0  0  0  0  0  0  0  0  0  0  0  0
   -2.1598   -7.9150    0.0000 H   0  0  0  0  0  0  0  0  0  0  0  0
    0.6877   -7.0445    0.0000 H   0  0  0  0  0  0  0  0  0  0  0  0
   -1.5497   -9.2853    0.0000 H   0  0  0  0  0  0  0  0  0  0  0  0
    1.1909   -8.0651    0.0000 H   0  0  0  0  0  0  0  0  0  0  0  0
    1.8010   -9.4354    0.0000 H   0  0  0  0  0  0  0  0  0  0  0  0
   -0.9396  -10.6556    0.0000 H   0  0  0  0  0  0  0  0  0  0  0  0
   -0.3295  -12.0260    0.0000 H   0  0  0  0  0  0  0  0  0  0  0  0
    2.4111  -10.8058    0.0000 H   0  0  0  0  0  0  0  0  0  0  0  0
    2.2610  -14.1565    0.0000 H   0  0  0  0  0  0  0  0  0  0  0  0
    3.0212  -12.1761    0.0000 H   0  0  0  0  0  0  0  0  0  0  0  0
    0.2806  -13.3963    0.0000 H   0  0  0  0  0  0  0  0  0  0  0  0
    0.5808   -6.6948    0.0000 H   0  0  0  0  0  0  0  0  0  0  0  0
    0.9782   -1.7589    0.0000 H   0  0  0  0  0  0  0  0  0  0  0  0
    2.3785   -2.7213    0.0000 H   0  0  0  0  0  0  0  0  0  0  0  0
   -0.5218   -3.2589    0.0000 H   0  0  0  0  0  0  0  0  0  0  0  0
    3.1748   -3.1482    0.0000 H   0  0  0  0  0  0  0  0  0  0  0  0
    4.2793   -5.0232    0.0000 H   0  0  0  0  0  0  0  0  0  0  0  0
    1.3850   -7.2300    0.0000 H   0  0  0  0  0  0  0  0  0  0  0  0
    3.2366   -8.3314    0.0000 H   0  0  0  0  0  0  0  0  0  0  0  0
    0.5426   -3.0306    0.0000 H   0  0  0  0  0  0  0  0  0  0  0  0
  1  2  1  0
  2  3  2  3
  3  4  1  0
  4  5  1  0
  6  5  1  6
  6  7  1  0
  7  8  1  0
  8  9  1  0
  9 10  1  0
 10 11  1  0
 11 12  1  0
 12 13  1  0
 13 14  1  0
 14 15  1  0
 15 16  1  0
 16 17  1  0
 17 18  1  0
 18 19  1  0
 19 20  1  0
 15 21  1  0
 21 22  1  0
 22 23  1  1
 22 24  1  0
 24 25  1  0
 25 26  1  0
 21 27  1  0
  6  3  1  0
 10  8  1  0
 27 12  1  0
 11  6  1  0
 27 14  1  0
 25 22  1  0
  1 28  1  0
  1 29  1  0
  1 30  1  0
  2 31  1  0
  4 32  1  0
  4 33  1  0
  5 34  1  0
  5 35  1  0
  7 36  1  0
  7 37  1  0
  9 38  1  0
  9 39  1  0
 10 40  1  1
 11 41  1  1
 12 42  1  1
 14 43  1  1
 15 44  1  1
 16 45  1  0
 16 46  1  0
 17 47  1  0
 17 48  1  0
 18 49  1  0
 18 50  1  0
 19 51  1  0
 19 52  1  0
 20 53  1  0
 20 54  1  0
 20 55  1  0
 21 56  1  6
 23 57  1  0
 23 58  1  0
 23 59  1  0
 24 60  1  0
 24 61  1  0
 25 62  1  1
 26 63  1  0
 27 64  1  1
M  END
$$$$
