
     RDKit          2D

 26 27  0  0  0  0  0  0  0  0999 V2000
   -5.1251    0.0542    0.0000 O   0  0  0  0  0  0  0  0  0  0  0  0
   -4.8646    1.5314    0.0000 C   0  0  0  0  0  0  0  0  0  0  0  0
   -3.3874    1.2709    0.0000 C   0  0  0  0  0  0  0  0  0  0  0  0
   -1.9102    1.0105    0.0000 C   0  0  0  0  0  0  0  0  0  0  0  0
   -0.4330    0.7500    0.0000 C   0  0  0  0  0  0  0  0  0  0  0  0
    0.8660    0.0000    0.0000 C   0  0  0  0  0  0  0  0  0  0  0  0
   -0.4330   -0.7500    0.0000 C   0  0  0  0  0  0  0  0  0  0  0  0
   -6.3419    1.7919    0.0000 C   0  0  0  0  0  0  0  0  0  0  0  0
   -7.6409    2.5419    0.0000 C   0  0  0  0  0  0  0  0  0  0  0  0
   -6.3419    3.2919    0.0000 C   0  0  0  0  0  0  0  0  0  0  0  0
   -6.4616   -0.6268    0.0000 H   0  0  0  0  0  0  0  0  0  0  0  0
   -4.4699    2.8224    0.0000 H   0  0  0  0  0  0  0  0  0  0  0  0
   -3.6479   -0.2063    0.0000 H   0  0  0  0  0  0  0  0  0  0  0  0
   -3.1270    2.7482    0.0000 H   0  0  0  0  0  0  0  0  0  0  0  0
   -2.3050   -0.2805    0.0000 H   0  0  0  0  0  0  0  0  0  0  0  0
   -1.6498    2.4877    0.0000 H   0  0  0  0  0  0  0  0  0  0  0  0
    0.0800    2.1595    0.0000 H   0  0  0  0  0  0  0  0  0  0  0  0
    1.8302    1.1491    0.0000 H   0  0  0  0  0  0  0  0  0  0  0  0
    1.8302   -1.1491    0.0000 H   0  0  0  0  0  0  0  0  0  0  0  0
    0.0800   -2.1595    0.0000 H   0  0  0  0  0  0  0  0  0  0  0  0
   -1.7240   -1.1447    0.0000 H   0  0  0  0  0  0  0  0  0  0  0  0
   -7.0229    0.4554    0.0000 H   0  0  0  0  0  0  0  0  0  0  0  0
   -8.6051    1.3928    0.0000 H   0  0  0  0  0  0  0  0  0  0  0  0
   -8.6051    3.6910    0.0000 H   0  0  0  0  0  0  0  0  0  0  0  0
   -6.8549    4.7014    0.0000 H   0  0  0  0  0  0  0  0  0  0  0  0
   -5.0509    3.6866    0.0000 H   0  0  0  0  0  0  0  0  0  0  0  0
  1  2  1  0
  2  3  1  0
  3  4  1  0
  4  5  1  0
  5  6  1  0
  6  7  1  0
  2  8  1  0
  8  9  1  0
  9 10  1  0
  7  5  1  0
 10  8  1  0
  1 11  1  0
  2 12  1  0
  3 13  1  0
  3 14  1  0
  4 15  1  0
  4 16  1  0
  5 17  1  0
  6 18  1  0
  6 19  1  0
  7 20  1  0
  7 21  1  0
  8 22  1  0
  9 23  1  0
  9 24  1  0
 10 25  1  0
 10 26  1  0
M  END
$$$$
