
     RDKit          2D

 41 42  0  0  0  0  0  0  0  0999 V2000
   -1.7321    4.5000    0.0000 C   0  0  0  0  0  0  0  0  0  0  0  0
   -0.4330    3.7500    0.0000 C   0  0  0  0  0  0  0  0  0  0  0  0
   -0.4330    2.2500    0.0000 C   0  0  0  0  0  0  0  0  0  0  0  0
   -0.4330    0.7500    0.0000 C   0  0  0  0  0  0  0  0  0  0  0  0
    0.8660    0.0000    0.0000 O   0  0  0  0  0  0  0  0  0  0  0  0
   -0.4330   -0.7500    0.0000 C   0  0  0  0  0  0  0  0  0  0  0  0
   -0.4330   -2.2500    0.0000 C   0  0  0  0  0  0  0  0  0  0  0  0
   -1.9330   -2.2500    0.0000 O   0  0  0  0  0  0  0  0  0  0  0  0
   -0.4330   -3.7500    0.0000 C   0  0  0  0  0  0  0  0  0  0  0  0
   -0.4330   -5.2500    0.0000 C   0  0  0  0  0  0  0  0  0  0  0  0
   -0.4330   -6.7500    0.0000 C   0  0  0  0  0  0  0  0  0  0  0  0
   -0.4330   -8.2500    0.0000 C   0  0  0  0  0  0  0  0  0  0  0  0
   -0.4330   -9.7500    0.0000 C   0  0  0  0  0  0  0  0  0  0  0  0
   -0.4330  -11.2500    0.0000 C   0  0  0  0  0  0  0  0  0  0  0  0
    1.0670  -11.2500    0.0000 C   0  0  0  0  0  0  0  0  0  0  0  0
   -0.4330  -12.7500    0.0000 C   0  0  0  0  0  0  0  0  0  0  0  0
    0.7649  -13.6528    0.0000 O   0  0  0  0  0  0  0  0  0  0  0  0
   -1.7321  -13.5000    0.0000 O   0  0  0  0  0  0  0  0  0  0  0  0
   -1.7321    0.0000    0.0000 O   0  0  0  0  0  0  0  0  0  0  0  0
   -1.7321    6.0000    0.0000 H   0  0  0  0  0  0  0  0  0  0  0  0
   -3.0311    3.7500    0.0000 H   0  0  0  0  0  0  0  0  0  0  0  0
    0.8660    4.5000    0.0000 H   0  0  0  0  0  0  0  0  0  0  0  0
   -1.9330    2.2500    0.0000 H   0  0  0  0  0  0  0  0  0  0  0  0
    1.0670    2.2500    0.0000 H   0  0  0  0  0  0  0  0  0  0  0  0
    1.0670   -2.2500    0.0000 H   0  0  0  0  0  0  0  0  0  0  0  0
   -2.6830   -0.9510    0.0000 H   0  0  0  0  0  0  0  0  0  0  0  0
    1.0670   -3.7500    0.0000 H   0  0  0  0  0  0  0  0  0  0  0  0
   -1.9330   -3.7500    0.0000 H   0  0  0  0  0  0  0  0  0  0  0  0
   -1.9330   -5.2500    0.0000 H   0  0  0  0  0  0  0  0  0  0  0  0
    1.0670   -5.2500    0.0000 H   0  0  0  0  0  0  0  0  0  0  0  0
    1.0670   -6.7500    0.0000 H   0  0  0  0  0  0  0  0  0  0  0  0
   -1.9330   -6.7500    0.0000 H   0  0  0  0  0  0  0  0  0  0  0  0
   -1.9330   -8.2500    0.0000 H   0  0  0  0  0  0  0  0  0  0  0  0
    1.0670   -8.2500    0.0000 H   0  0  0  0  0  0  0  0  0  0  0  0
    0.4461   -9.6420    0.0000 H   0  0  0  0  0  0  0  0  0  0  0  0
   -1.9330   -9.7500    0.0000 H   0  0  0  0  0  0  0  0  0  0  0  0
   -1.9330  -11.2500    0.0000 H   0  0  0  0  0  0  0  0  0  0  0  0
    2.5670  -11.2500    0.0000 H   0  0  0  0  0  0  0  0  0  0  0  0
    1.2498  -12.7388    0.0000 H   0  0  0  0  0  0  0  0  0  0  0  0
    1.1750  -10.3709    0.0000 H   0  0  0  0  0  0  0  0  0  0  0  0
   -1.7321  -15.0000    0.0000 H   0  0  0  0  0  0  0  0  0  0  0  0
  1  2  2  3
  2  3  1  0
  3  4  1  0
  4  5  1  0
  5  6  1  0
  6  7  1  0
  7  8  1  0
  7  9  1  0
  9 10  1  0
 10 11  1  0
 11 12  1  0
 12 13  1  0
 13 14  1  0
 14 15  1  0
 14 16  1  0
 16 17  2  0
 16 18  1  0
  6 19  1  0
  6  4  1  0
 19  4  1  0
  1 20  1  0
  1 21  1  0
  2 22  1  0
  3 23  1  0
  3 24  1  0
  7 25  1  1
  8 26  1  0
  9 27  1  0
  9 28  1  0
 10 29  1  0
 10 30  1  0
 11 31  1  0
 11 32  1  0
 12 33  1  0
 12 34  1  0
 13 35  1  0
 13 36  1  0
 14 37  1  1
 15 38  1  0
 15 39  1  0
 15 40  1  0
 18 41  1  0
M  END
$$$$
