
     RDKit          2D

 70 76  0  0  0  0  0  0  0  0999 V2000
   -0.0849   11.0490    0.0000 C   0  0  0  0  0  0  0  0  0  0  0  0
   -0.0849    9.5490    0.0000 C   0  0  0  0  0  0  0  0  0  0  0  0
   -1.3840    8.7990    0.0000 C   0  0  0  0  0  0  0  0  0  0  0  0
   -2.6830    8.0490    0.0000 C   0  0  0  0  0  0  0  0  0  0  0  0
   -3.9821    7.2990    0.0000 C   0  0  0  0  0  0  0  0  0  0  0  0
   -5.2811    6.5490    0.0000 C   0  0  0  0  0  0  0  0  0  0  0  0
   -6.7583    6.2886    0.0000 C   0  0  0  0  0  0  0  0  0  0  0  0
   -6.2453    7.6981    0.0000 C   0  0  0  0  0  0  0  0  0  0  0  0
   -7.5443    8.4481    0.0000 N   0  0  0  0  0  0  0  0  0  0  0  0
   -9.0443    8.4481    0.0000 C   0  0  0  0  0  0  0  0  0  0  0  0
   -8.2943    9.7471    0.0000 C   0  0  0  0  0  0  0  0  0  0  0  0
   -1.9330    6.7500    0.0000 N   0  0  0  0  0  0  0  0  0  0  0  0
   -0.4330    6.7500    0.0000 C   0  0  0  0  0  0  0  0  0  0  0  0
   -0.4330    5.2500    0.0000 C   0  0  0  0  0  0  0  0  0  0  0  0
   -0.4330    3.7500    0.0000 C   0  0  0  0  0  0  0  0  0  0  0  0
   -0.4330    2.2500    0.0000 C   0  0  0  0  0  0  0  0  0  0  0  0
   -0.4330    0.7500    0.0000 C   0  0  0  0  0  0  0  0  0  0  0  0
    0.8660    0.0000    0.0000 C   0  0  0  0  0  0  0  0  0  0  0  0
    1.8302    1.1491    0.0000 C   0  0  0  0  0  0  0  0  0  0  0  0
    2.7944    2.2981    0.0000 C   0  0  0  0  0  0  0  0  0  0  0  0
   -0.4330   -0.7500    0.0000 C   0  0  0  0  0  0  0  0  0  0  0  0
   -1.7321   -1.5000    0.0000 C   0  0  0  0  0  0  0  0  0  0  0  0
   -1.7321    0.0000    0.0000 C   0  0  0  0  0  0  0  0  0  0  0  0
    1.0670    5.2500    0.0000 N   0  0  0  0  0  0  0  0  0  0  0  0
    1.0670    6.7500    0.0000 C   0  0  0  0  0  0  0  0  0  0  0  0
    1.0670    8.2500    0.0000 C   0  0  0  0  0  0  0  0  0  0  0  0
    1.0670    9.7500    0.0000 C   0  0  0  0  0  0  0  0  0  0  0  0
    1.5800   11.1595    0.0000 C   0  0  0  0  0  0  0  0  0  0  0  0
    2.5442   10.0105    0.0000 C   0  0  0  0  0  0  0  0  0  0  0  0
    0.9940   12.0911    0.0000 H   0  0  0  0  0  0  0  0  0  0  0  0
   -1.3840   11.7990    0.0000 H   0  0  0  0  0  0  0  0  0  0  0  0
    0.6814    9.3294    0.0000 H   0  0  0  0  0  0  0  0  0  0  0  0
   -0.3419    7.7201    0.0000 H   0  0  0  0  0  0  0  0  0  0  0  0
   -2.1340   10.0981    0.0000 H   0  0  0  0  0  0  0  0  0  0  0  0
   -3.4330    9.3481    0.0000 H   0  0  0  0  0  0  0  0  0  0  0  0
   -4.5681    8.6798    0.0000 H   0  0  0  0  0  0  0  0  0  0  0  0
   -3.3960    5.9183    0.0000 H   0  0  0  0  0  0  0  0  0  0  0  0
   -4.7681    5.1395    0.0000 H   0  0  0  0  0  0  0  0  0  0  0  0
   -6.7583    4.7886    0.0000 H   0  0  0  0  0  0  0  0  0  0  0  0
   -8.2355    6.5490    0.0000 H   0  0  0  0  0  0  0  0  0  0  0  0
   -5.4283    8.9561    0.0000 H   0  0  0  0  0  0  0  0  0  0  0  0
   -9.3048    6.9709    0.0000 H   0  0  0  0  0  0  0  0  0  0  0  0
  -10.4538    8.9611    0.0000 H   0  0  0  0  0  0  0  0  0  0  0  0
   -9.4434   10.7113    0.0000 H   0  0  0  0  0  0  0  0  0  0  0  0
   -7.1452   10.7113    0.0000 H   0  0  0  0  0  0  0  0  0  0  0  0
   -2.6830    5.4510    0.0000 H   0  0  0  0  0  0  0  0  0  0  0  0
   -0.4330    8.2500    0.0000 H   0  0  0  0  0  0  0  0  0  0  0  0
   -1.9218    5.0672    0.0000 H   0  0  0  0  0  0  0  0  0  0  0  0
    1.0558    3.9328    0.0000 H   0  0  0  0  0  0  0  0  0  0  0  0
   -1.9330    3.7500    0.0000 H   0  0  0  0  0  0  0  0  0  0  0  0
   -1.9330    2.2500    0.0000 H   0  0  0  0  0  0  0  0  0  0  0  0
    1.0558    2.4328    0.0000 H   0  0  0  0  0  0  0  0  0  0  0  0
    1.8302   -1.1491    0.0000 H   0  0  0  0  0  0  0  0  0  0  0  0
    2.9793    0.1849    0.0000 H   0  0  0  0  0  0  0  0  0  0  0  0
    0.8072    2.2461    0.0000 H   0  0  0  0  0  0  0  0  0  0  0  0
    3.7586    3.4472    0.0000 H   0  0  0  0  0  0  0  0  0  0  0  0
    3.9435    1.3340    0.0000 H   0  0  0  0  0  0  0  0  0  0  0  0
    1.7714    3.3952    0.0000 H   0  0  0  0  0  0  0  0  0  0  0  0
   -1.2190   -2.9095    0.0000 H   0  0  0  0  0  0  0  0  0  0  0  0
   -3.2093   -1.7605    0.0000 H   0  0  0  0  0  0  0  0  0  0  0  0
   -3.0311    0.7500    0.0000 H   0  0  0  0  0  0  0  0  0  0  0  0
    2.1276    4.1893    0.0000 H   0  0  0  0  0  0  0  0  0  0  0  0
    2.5670    6.7500    0.0000 H   0  0  0  0  0  0  0  0  0  0  0  0
    2.5558    8.0672    0.0000 H   0  0  0  0  0  0  0  0  0  0  0  0
   -0.4330    8.2500    0.0000 H   0  0  0  0  0  0  0  0  0  0  0  0
   -0.3033   10.3602    0.0000 H   0  0  0  0  0  0  0  0  0  0  0  0
    0.2810   11.9095    0.0000 H   0  0  0  0  0  0  0  0  0  0  0  0
    2.5442   12.3086    0.0000 H   0  0  0  0  0  0  0  0  0  0  0  0
    3.8432   10.7605    0.0000 H   0  0  0  0  0  0  0  0  0  0  0  0
    3.2252    8.6740    0.0000 H   0  0  0  0  0  0  0  0  0  0  0  0
  1  2  2  3
  2  3  1  0
  3  4  1  0
  4  5  1  0
  5  6  1  0
  6  7  1  0
  7  8  1  0
  8  9  1  0
  9 10  1  0
 10 11  1  0
  4 12  1  0
 12 13  1  0
 13 14  1  0
 14 15  1  0
 15 16  1  0
 16 17  1  0
 17 18  1  0
 18 19  1  0
 19 20  1  0
 18 21  1  0
 21 22  1  0
 22 23  1  0
 14 24  1  0
 24 25  1  0
 25 26  1  0
 26 27  1  0
 27 28  1  0
 28 29  1  0
  8  6  1  0
 11  9  1  0
 25 13  1  0
 29 27  1  0
 21 17  1  0
 23 17  1  0
 23 21  1  0
  1 30  1  0
  1 31  1  0
  2 32  1  0
  3 33  1  0
  3 34  1  0
  4 35  1  0
  5 36  1  0
  5 37  1  0
  6 38  1  0
  7 39  1  0
  7 40  1  0
  8 41  1  0
 10 42  1  0
 10 43  1  0
 11 44  1  0
 11 45  1  0
 12 46  1  0
 13 47  1  0
 14 48  1  0
 15 49  1  0
 15 50  1  0
 16 51  1  0
 16 52  1  0
 18 53  1  0
 19 54  1  0
 19 55  1  0
 20 56  1  0
 20 57  1  0
 20 58  1  0
 22 59  1  0
 22 60  1  0
 23 61  1  0
 24 62  1  0
 25 63  1  0
 26 64  1  0
 26 65  1  0
 27 66  1  0
 28 67  1  0
 28 68  1  0
 29 69  1  0
 29 70  1  0
M  END
$$$$
