
     RDKit          2D

 46 50  0  0  0  0  0  0  0  0999 V2000
    5.2723   -2.4465    0.0000 C   0  0  0  0  0  0  0  0  0  0  0  0
    4.2117   -1.3858    0.0000 C   0  0  0  0  0  0  0  0  0  0  0  0
    2.8259   -1.9598    0.0000 C   0  0  0  0  0  0  0  0  0  0  0  0
    1.4401   -1.3858    0.0000 C   0  0  0  0  0  0  0  0  0  0  0  0
    0.8660    0.0000    0.0000 C   0  0  0  0  0  0  0  0  0  0  0  0
    1.4401    1.3858    0.0000 N   0  0  0  0  0  0  0  0  0  0  0  0
    2.8259    1.9598    0.0000 C   0  0  0  0  0  0  0  0  0  0  0  0
    4.2117    1.3858    0.0000 C   0  0  0  0  0  0  0  0  0  0  0  0
    4.7857   -0.0000    0.0000 C   0  0  0  0  0  0  0  0  0  0  0  0
    5.9757    0.9131    0.0000 C   0  0  0  0  0  0  0  0  0  0  0  0
    7.1658    1.8263    0.0000 C   0  0  0  0  0  0  0  0  0  0  0  0
    8.5963    2.2773    0.0000 N   0  0  0  0  0  0  0  0  0  0  0  0
    8.2717    0.8129    0.0000 C   0  0  0  0  0  0  0  0  0  0  0  0
    7.5791   -0.5176    0.0000 C   0  0  0  0  0  0  0  0  0  0  0  0
    8.9096   -1.2102    0.0000 C   0  0  0  0  0  0  0  0  0  0  0  0
    9.6022    0.1203    0.0000 C   0  0  0  0  0  0  0  0  0  0  0  0
   10.2948    1.4508    0.0000 O   0  0  0  0  0  0  0  0  0  0  0  0
   -0.4330    0.7500    0.0000 C   0  0  0  0  0  0  0  0  0  0  0  0
   -1.7321    0.0000    0.0000 C   0  0  0  0  0  0  0  0  0  0  0  0
   -0.4330   -0.7500    0.0000 C   0  0  0  0  0  0  0  0  0  0  0  0
    4.8841   -3.8954    0.0000 H   0  0  0  0  0  0  0  0  0  0  0  0
    6.7578   -2.2378    0.0000 H   0  0  0  0  0  0  0  0  0  0  0  0
    3.7390   -3.1499    0.0000 H   0  0  0  0  0  0  0  0  0  0  0  0
    2.0646   -3.2523    0.0000 H   0  0  0  0  0  0  0  0  0  0  0  0
    1.0644   -2.8380    0.0000 H   0  0  0  0  0  0  0  0  0  0  0  0
   -0.0122   -1.7614    0.0000 H   0  0  0  0  0  0  0  0  0  0  0  0
    0.5166    2.5679    0.0000 H   0  0  0  0  0  0  0  0  0  0  0  0
    1.9127    3.1499    0.0000 H   0  0  0  0  0  0  0  0  0  0  0  0
    3.5871    3.2523    0.0000 H   0  0  0  0  0  0  0  0  0  0  0  0
    4.5497    2.6928    0.0000 H   0  0  0  0  0  0  0  0  0  0  0  0
    4.9901    1.8085    0.0000 H   0  0  0  0  0  0  0  0  0  0  0  0
    5.4884   -0.5392    0.0000 H   0  0  0  0  0  0  0  0  0  0  0  0
    6.2272    0.0639    0.0000 H   0  0  0  0  0  0  0  0  0  0  0  0
    5.5712    1.6000    0.0000 H   0  0  0  0  0  0  0  0  0  0  0  0
    6.4732    3.1568    0.0000 H   0  0  0  0  0  0  0  0  0  0  0  0
    9.6097    3.3833    0.0000 H   0  0  0  0  0  0  0  0  0  0  0  0
    7.0538   -1.9226    0.0000 H   0  0  0  0  0  0  0  0  0  0  0  0
    6.0887   -0.3479    0.0000 H   0  0  0  0  0  0  0  0  0  0  0  0
   10.2401   -1.9029    0.0000 H   0  0  0  0  0  0  0  0  0  0  0  0
    8.2170   -2.5408    0.0000 H   0  0  0  0  0  0  0  0  0  0  0  0
   10.9327   -0.5723    0.0000 H   0  0  0  0  0  0  0  0  0  0  0  0
   11.7934    1.5162    0.0000 H   0  0  0  0  0  0  0  0  0  0  0  0
   -0.6159    2.2388    0.0000 H   0  0  0  0  0  0  0  0  0  0  0  0
   -2.6962    1.1491    0.0000 H   0  0  0  0  0  0  0  0  0  0  0  0
   -2.6962   -1.1491    0.0000 H   0  0  0  0  0  0  0  0  0  0  0  0
   -0.6159   -2.2388    0.0000 H   0  0  0  0  0  0  0  0  0  0  0  0
  1  2  2  3
  2  3  1  0
  3  4  1  0
  4  5  1  0
  5  6  1  0
  6  7  1  0
  7  8  1  0
  8  9  1  0
  9 10  1  0
 10 11  1  0
 11 12  1  0
 12 13  1  0
 13 14  1  0
 14 15  1  0
 15 16  1  0
 16 17  1  0
  5 18  1  0
 18 19  1  0
 19 20  1  0
  9  2  1  0
 13 11  1  0
 20 18  1  0
 20  5  1  0
 16 13  1  0
  1 21  1  0
  1 22  1  0
  3 23  1  0
  3 24  1  0
  4 25  1  0
  4 26  1  0
  6 27  1  0
  7 28  1  0
  7 29  1  0
  8 30  1  0
  8 31  1  0
  9 32  1  0
 10 33  1  0
 10 34  1  0
 11 35  1  0
 12 36  1  0
 14 37  1  0
 14 38  1  0
 15 39  1  0
 15 40  1  0
 16 41  1  0
 17 42  1  0
 18 43  1  0
 19 44  1  0
 19 45  1  0
 20 46  1  0
M  END
$$$$
