
     RDKit          2D

 43 45  0  0  0  0  0  0  0  0999 V2000
   -8.0600   -9.2095    0.0000 C   0  0  0  0  0  0  0  0  0  0  0  0
   -7.1996   -7.9808    0.0000 C   0  0  0  0  0  0  0  0  0  0  0  0
   -6.3392   -6.7520    0.0000 C   0  0  0  0  0  0  0  0  0  0  0  0
   -5.4789   -5.5233    0.0000 C   0  0  0  0  0  0  0  0  0  0  0  0
   -4.6185   -4.2946    0.0000 C   0  0  0  0  0  0  0  0  0  0  0  0
   -3.7581   -3.0658    0.0000 C   0  0  0  0  0  0  0  0  0  0  0  0
   -2.8978   -1.8371    0.0000 C   0  0  0  0  0  0  0  0  0  0  0  0
   -2.5095   -0.3882    0.0000 C   0  0  0  0  0  0  0  0  0  0  0  0
   -1.0607    0.0000    0.0000 C   0  0  0  0  0  0  0  0  0  0  0  0
    0.0000    1.0607    0.0000 C   0  0  0  0  0  0  0  0  0  0  0  0
    0.7453   -0.2411    0.0000 N   0  0  0  0  0  0  0  0  0  0  0  0
   -0.3882   -2.5095    0.0000 C   0  0  0  0  0  0  0  0  0  0  0  0
   -1.8371   -2.8978    0.0000 C   0  0  0  0  0  0  0  0  0  0  0  0
   -1.2032   -4.2572    0.0000 C   0  0  0  0  0  0  0  0  0  0  0  0
   -0.0000   -1.0607    0.0000 C   0  0  0  0  0  0  0  0  0  0  0  0
   -0.3393    0.0000    0.0000 C   0  0  0  0  0  0  0  0  0  0  0  0
    2.1213    1.0607    0.0000 Cl  0  0  0  0  0  0  0  0  0  0  0  0
   -8.9203  -10.4382    0.0000 H   0  0  0  0  0  0  0  0  0  0  0  0
   -6.8312  -10.0699    0.0000 H   0  0  0  0  0  0  0  0  0  0  0  0
   -9.2887   -8.3491    0.0000 H   0  0  0  0  0  0  0  0  0  0  0  0
   -5.9709   -8.8411    0.0000 H   0  0  0  0  0  0  0  0  0  0  0  0
   -8.4283   -7.1204    0.0000 H   0  0  0  0  0  0  0  0  0  0  0  0
   -7.5680   -5.8917    0.0000 H   0  0  0  0  0  0  0  0  0  0  0  0
   -5.1105   -7.6124    0.0000 H   0  0  0  0  0  0  0  0  0  0  0  0
   -4.2501   -6.3837    0.0000 H   0  0  0  0  0  0  0  0  0  0  0  0
   -6.7076   -4.6629    0.0000 H   0  0  0  0  0  0  0  0  0  0  0  0
   -3.5038   -5.2983    0.0000 H   0  0  0  0  0  0  0  0  0  0  0  0
   -5.8472   -3.4342    0.0000 H   0  0  0  0  0  0  0  0  0  0  0  0
   -3.1658   -3.5993    0.0000 H   0  0  0  0  0  0  0  0  0  0  0  0
   -4.9869   -2.2055    0.0000 H   0  0  0  0  0  0  0  0  0  0  0  0
   -4.2572   -1.2032    0.0000 H   0  0  0  0  0  0  0  0  0  0  0  0
   -4.0038   -0.2575    0.0000 H   0  0  0  0  0  0  0  0  0  0  0  0
   -2.8215    1.0790    0.0000 H   0  0  0  0  0  0  0  0  0  0  0  0
   -1.6467    1.3808    0.0000 H   0  0  0  0  0  0  0  0  0  0  0  0
    0.0000    2.5607    0.0000 H   0  0  0  0  0  0  0  0  0  0  0  0
    2.2056   -0.5838    0.0000 H   0  0  0  0  0  0  0  0  0  0  0  0
    0.7938   -3.4330    0.0000 H   0  0  0  0  0  0  0  0  0  0  0  0
   -2.4295   -3.4312    0.0000 H   0  0  0  0  0  0  0  0  0  0  0  0
   -0.5693   -5.6167    0.0000 H   0  0  0  0  0  0  0  0  0  0  0  0
   -2.4752   -5.0522    0.0000 H   0  0  0  0  0  0  0  0  0  0  0  0
    0.2234   -3.7938    0.0000 H   0  0  0  0  0  0  0  0  0  0  0  0
    1.2990   -1.8107    0.0000 H   0  0  0  0  0  0  0  0  0  0  0  0
    2.2427   -0.9235    0.0000 H   0  0  0  0  0  0  0  0  0  0  0  0
  1  2  1  0
  2  3  1  0
  3  4  1  0
  4  5  1  0
  5  6  1  0
  6  7  1  0
  7  8  1  0
  8  9  1  0
  9 10  1  0
 10 11  1  0
 11 12  1  0
 12 13  1  0
 13 14  1  0
 12 15  1  0
 15 16  1  0
 16 17  1  0
 13  7  1  0
 15  9  1  0
 16 10  1  0
  1 18  1  0
  1 19  1  0
  1 20  1  0
  2 21  1  0
  2 22  1  0
  3 23  1  0
  3 24  1  0
  4 25  1  0
  4 26  1  0
  5 27  1  0
  5 28  1  0
  6 29  1  0
  6 30  1  0
  7 31  1  0
  8 32  1  0
  8 33  1  0
  9 34  1  0
 10 35  1  0
 11 36  1  0
 12 37  1  0
 13 38  1  0
 14 39  1  0
 14 40  1  0
 14 41  1  0
 15 42  1  0
 16 43  1  0
M  END
$$$$
