
     RDKit          2D

 24 23  0  0  0  0  0  0  0  0999 V2000
    0.0000    0.0000    0.0000 C   0  0  0  0  0  0  0  0  0  0  0  0
    1.5000    0.0000    0.0000 O   0  0  0  0  0  0  0  0  0  0  0  0
    2.2500   -1.2990    0.0000 C   0  0  0  0  0  0  0  0  0  0  0  0
    3.0000   -2.5981    0.0000 O   0  0  0  0  0  0  0  0  0  0  0  0
    2.2500   -3.8971    0.0000 C   0  0  0  0  0  0  0  0  0  0  0  0
    0.9510   -3.1471    0.0000 F   0  0  0  0  0  0  0  0  0  0  0  0
    1.5000   -5.1962    0.0000 C   0  0  0  0  0  0  0  0  0  0  0  0
    0.2010   -4.4462    0.0000 F   0  0  0  0  0  0  0  0  0  0  0  0
    2.7990   -5.9462    0.0000 F   0  0  0  0  0  0  0  0  0  0  0  0
    0.7500   -6.4952    0.0000 C   0  0  0  0  0  0  0  0  0  0  0  0
    0.0000   -7.7942    0.0000 C   0  0  0  0  0  0  0  0  0  0  0  0
   -0.7500   -9.0933    0.0000 O   0  0  0  0  0  0  0  0  0  0  0  0
    0.0000  -10.3923    0.0000 S   0  0  0  0  0  0  0  0  0  0  0  0
   -1.5000    0.0000    0.0000 H   0  0  0  0  0  0  0  0  0  0  0  0
    0.0000    1.5000    0.0000 H   0  0  0  0  0  0  0  0  0  0  0  0
   -0.0000   -1.5000    0.0000 H   0  0  0  0  0  0  0  0  0  0  0  0
    3.5490   -0.5490    0.0000 H   0  0  0  0  0  0  0  0  0  0  0  0
    0.9510   -2.0490    0.0000 H   0  0  0  0  0  0  0  0  0  0  0  0
    3.5490   -4.6471    0.0000 H   0  0  0  0  0  0  0  0  0  0  0  0
    2.0490   -7.2452    0.0000 H   0  0  0  0  0  0  0  0  0  0  0  0
   -0.5490   -5.7452    0.0000 H   0  0  0  0  0  0  0  0  0  0  0  0
   -1.2990   -7.0442    0.0000 H   0  0  0  0  0  0  0  0  0  0  0  0
    1.2990   -8.5442    0.0000 H   0  0  0  0  0  0  0  0  0  0  0  0
   -0.7500  -11.6913    0.0000 H   0  0  0  0  0  0  0  0  0  0  0  0
  1  2  1  0
  2  3  1  0
  3  4  1  0
  4  5  1  0
  5  6  1  0
  5  7  1  0
  7  8  1  0
  7  9  1  0
  7 10  1  0
 10 11  1  0
 11 12  1  0
 12 13  1  0
  1 14  1  0
  1 15  1  0
  1 16  1  0
  3 17  1  0
  3 18  1  0
  5 19  1  6
 10 20  1  0
 10 21  1  0
 11 22  1  0
 11 23  1  0
 13 24  1  0
M  END
$$$$
