
     RDKit          2D

 34 38  0  0  0  0  0  0  0  0999 V2000
   -7.2650   -1.0344    0.0000 C   0  0  0  0  0  0  0  0  0  0  0  0
   -6.2613   -2.1491    0.0000 C   0  0  0  0  0  0  0  0  0  0  0  0
   -5.2576   -3.2638    0.0000 N   0  0  0  0  0  0  0  0  0  0  0  0
   -3.7903   -2.9520    0.0000 C   0  0  0  0  0  0  0  0  0  0  0  0
   -2.3231   -2.6401    0.0000 O   0  0  0  0  0  0  0  0  0  0  0  0
   -1.8596   -1.2135    0.0000 Al  0  0  0  0  0  3  0  0  0  0  0  0
   -2.7413    0.0000    0.0000 O   0  0  0  0  0  0  0  0  0  0  0  0
   -1.8596    1.2135    0.0000 C   0  0  0  0  0  0  0  0  0  0  0  0
   -0.4330    0.7500    0.0000 C   0  0  0  0  0  0  0  0  0  0  0  0
    0.8660    0.0000    0.0000 C   0  0  0  0  0  0  0  0  0  0  0  0
    2.1651    0.7500    0.0000 C   0  0  0  0  0  0  0  0  0  0  0  0
    2.1651    2.2500    0.0000 C   0  0  0  0  0  0  0  0  0  0  0  0
    0.8660    3.0000    0.0000 C   0  0  0  0  0  0  0  0  0  0  0  0
    2.1651    3.7500    0.0000 C   0  0  0  0  0  0  0  0  0  0  0  0
   -0.4330    2.2500    0.0000 C   0  0  0  0  0  0  0  0  0  0  0  0
   -0.4330   -0.7500    0.0000 C   0  0  0  0  0  0  0  0  0  0  0  0
   -8.2687    0.0803    0.0000 H   0  0  0  0  0  0  0  0  0  0  0  0
   -6.1502   -0.0307    0.0000 H   0  0  0  0  0  0  0  0  0  0  0  0
   -8.3797   -2.0381    0.0000 H   0  0  0  0  0  0  0  0  0  0  0  0
   -5.1465   -1.1454    0.0000 H   0  0  0  0  0  0  0  0  0  0  0  0
   -7.3760   -3.1528    0.0000 H   0  0  0  0  0  0  0  0  0  0  0  0
   -5.7211   -4.6904    0.0000 H   0  0  0  0  0  0  0  0  0  0  0  0
   -4.1022   -1.4848    0.0000 H   0  0  0  0  0  0  0  0  0  0  0  0
   -3.4785   -4.4192    0.0000 H   0  0  0  0  0  0  0  0  0  0  0  0
   -1.4211    2.6480    0.0000 H   0  0  0  0  0  0  0  0  0  0  0  0
   -3.1586    1.9635    0.0000 H   0  0  0  0  0  0  0  0  0  0  0  0
    0.3122    0.5734    0.0000 H   0  0  0  0  0  0  0  0  0  0  0  0
    3.6423    1.0105    0.0000 H   0  0  0  0  0  0  0  0  0  0  0  0
    2.6781   -0.6595    0.0000 H   0  0  0  0  0  0  0  0  0  0  0  0
    3.6651    2.2500    0.0000 H   0  0  0  0  0  0  0  0  0  0  0  0
    0.1160    4.2990    0.0000 H   0  0  0  0  0  0  0  0  0  0  0  0
    2.9151    5.0490    0.0000 H   0  0  0  0  0  0  0  0  0  0  0  0
   -1.6309    3.1528    0.0000 H   0  0  0  0  0  0  0  0  0  0  0  0
    0.1771   -2.1203    0.0000 H   0  0  0  0  0  0  0  0  0  0  0  0
  1  2  1  0
  2  3  1  0
  3  4  1  0
  4  5  1  0
  5  6  1  0
  6  7  1  0
  7  8  1  0
  8  9  1  0
  9 10  1  0
 10 11  1  0
 11 12  1  0
 12 13  1  0
 13 14  1  0
 14 15  1  0
 10 16  1  0
 16  6  1  0
 15  9  1  0
 16  9  1  0
 14 12  1  0
 15 13  1  0
  1 17  1  0
  1 18  1  0
  1 19  1  0
  2 20  1  0
  2 21  1  0
  3 22  1  0
  4 23  1  0
  4 24  1  0
  8 25  1  0
  8 26  1  0
 10 27  1  0
 11 28  1  0
 11 29  1  0
 12 30  1  0
 13 31  1  0
 14 32  1  0
 15 33  1  0
 16 34  1  0
M  END
$$$$
