
     RDKit          2D

 71 79  0  0  0  0  0  0  0  0999 V2000
    2.7944    2.2981    0.0000 C   0  0  0  0  0  0  0  0  0  0  0  0
    1.8302    1.1491    0.0000 C   0  0  0  0  0  0  0  0  0  0  0  0
    0.8660    0.0000    0.0000 C   0  0  0  0  0  0  0  0  0  0  0  0
   -0.4330    0.7500    0.0000 C   0  0  0  0  0  0  0  0  0  0  0  0
   -0.4330   -0.7500    0.0000 N   0  0  0  0  0  0  0  0  0  0  0  0
   -1.9330   -0.7500    0.0000 C   0  0  0  0  0  0  0  0  0  0  0  0
   -2.8147   -1.9635    0.0000 C   0  0  0  0  0  0  0  0  0  0  0  0
   -4.2413   -2.4271    0.0000 N   0  0  0  0  0  0  0  0  0  0  0  0
   -5.6679   -1.9635    0.0000 C   0  0  0  0  0  0  0  0  0  0  0  0
   -6.5495   -0.7500    0.0000 C   0  0  0  0  0  0  0  0  0  0  0  0
   -6.5495    0.7500    0.0000 N   0  0  0  0  0  0  0  0  0  0  0  0
   -5.6679    1.9635    0.0000 C   0  0  0  0  0  0  0  0  0  0  0  0
   -5.6679    3.4635    0.0000 O   0  0  0  0  0  0  0  0  0  0  0  0
   -4.2413    2.4271    0.0000 C   0  0  0  0  0  0  0  0  0  0  0  0
   -5.4548    3.3087    0.0000 C   0  0  0  0  0  0  0  0  0  0  0  0
   -6.6683    2.4271    0.0000 C   0  0  0  0  0  0  0  0  0  0  0  0
   -7.4183    3.7261    0.0000 C   0  0  0  0  0  0  0  0  0  0  0  0
   -8.7174    2.9761    0.0000 C   0  0  0  0  0  0  0  0  0  0  0  0
   -9.4674    4.2751    0.0000 N   0  0  0  0  0  0  0  0  0  0  0  0
   -8.1683    5.0251    0.0000 C   0  0  0  0  0  0  0  0  0  0  0  0
   -7.4183    3.7261    0.0000 C   0  0  0  0  0  0  0  0  0  0  0  0
   -6.6683    2.4271    0.0000 C   0  0  0  0  0  0  0  0  0  0  0  0
   -5.9183    1.1280    0.0000 C   0  0  0  0  0  0  0  0  0  0  0  0
   -6.9220    0.0133    0.0000 C   0  0  0  0  0  0  0  0  0  0  0  0
   -6.1720   -1.2857    0.0000 C   0  0  0  0  0  0  0  0  0  0  0  0
   -4.6193   -1.1220    0.0000 C   0  0  0  0  0  0  0  0  0  0  0  0
   -4.6193    0.3780    0.0000 C   0  0  0  0  0  0  0  0  0  0  0  0
   -5.9183   -0.3720    0.0000 C   0  0  0  0  0  0  0  0  0  0  0  0
   -2.8147    1.9635    0.0000 C   0  0  0  0  0  0  0  0  0  0  0  0
   -1.9330    0.7500    0.0000 C   0  0  0  0  0  0  0  0  0  0  0  0
   -3.4145    0.5153    0.0000 C   0  0  0  0  0  0  0  0  0  0  0  0
    3.7586    3.4472    0.0000 H   0  0  0  0  0  0  0  0  0  0  0  0
    3.9435    1.3340    0.0000 H   0  0  0  0  0  0  0  0  0  0  0  0
    1.6453    3.2623    0.0000 H   0  0  0  0  0  0  0  0  0  0  0  0
    0.8072    2.2461    0.0000 H   0  0  0  0  0  0  0  0  0  0  0  0
    2.9793    0.1849    0.0000 H   0  0  0  0  0  0  0  0  0  0  0  0
    1.8302   -1.1491    0.0000 H   0  0  0  0  0  0  0  0  0  0  0  0
   -0.2243    2.2354    0.0000 H   0  0  0  0  0  0  0  0  0  0  0  0
   -1.0942   -1.9935    0.0000 H   0  0  0  0  0  0  0  0  0  0  0  0
   -2.8147   -3.4635    0.0000 H   0  0  0  0  0  0  0  0  0  0  0  0
   -1.4552   -2.5975    0.0000 H   0  0  0  0  0  0  0  0  0  0  0  0
   -4.2413   -3.9271    0.0000 H   0  0  0  0  0  0  0  0  0  0  0  0
   -6.9399   -2.7585    0.0000 H   0  0  0  0  0  0  0  0  0  0  0  0
   -5.4850   -3.4523    0.0000 H   0  0  0  0  0  0  0  0  0  0  0  0
   -8.0220   -0.4638    0.0000 H   0  0  0  0  0  0  0  0  0  0  0  0
   -7.8076   -1.5669    0.0000 H   0  0  0  0  0  0  0  0  0  0  0  0
   -7.0944    2.4271    0.0000 H   0  0  0  0  0  0  0  0  0  0  0  0
   -6.4626    4.7357    0.0000 H   0  0  0  0  0  0  0  0  0  0  0  0
   -4.0584    3.9159    0.0000 H   0  0  0  0  0  0  0  0  0  0  0  0
   -4.5945    4.5375    0.0000 H   0  0  0  0  0  0  0  0  0  0  0  0
   -6.1589    4.6332    0.0000 H   0  0  0  0  0  0  0  0  0  0  0  0
   -8.1456    2.1667    0.0000 H   0  0  0  0  0  0  0  0  0  0  0  0
   -8.4973    2.6840    0.0000 H   0  0  0  0  0  0  0  0  0  0  0  0
   -9.1056    1.5272    0.0000 H   0  0  0  0  0  0  0  0  0  0  0  0
  -10.9163    4.6634    0.0000 H   0  0  0  0  0  0  0  0  0  0  0  0
   -7.7801    6.4740    0.0000 H   0  0  0  0  0  0  0  0  0  0  0  0
   -6.3394    4.7681    0.0000 H   0  0  0  0  0  0  0  0  0  0  0  0
   -7.9674    1.6771    0.0000 H   0  0  0  0  0  0  0  0  0  0  0  0
   -5.3693    3.1771    0.0000 H   0  0  0  0  0  0  0  0  0  0  0  0
   -8.1656    0.8520    0.0000 H   0  0  0  0  0  0  0  0  0  0  0  0
   -8.2340   -0.7139    0.0000 H   0  0  0  0  0  0  0  0  0  0  0  0
   -7.4578   -2.0583    0.0000 H   0  0  0  0  0  0  0  0  0  0  0  0
   -5.5381   -2.6452    0.0000 H   0  0  0  0  0  0  0  0  0  0  0  0
   -3.5772   -2.2009    0.0000 H   0  0  0  0  0  0  0  0  0  0  0  0
   -3.5403    1.4201    0.0000 H   0  0  0  0  0  0  0  0  0  0  0  0
   -6.9973   -1.4140    0.0000 H   0  0  0  0  0  0  0  0  0  0  0  0
   -1.3881    2.4271    0.0000 H   0  0  0  0  0  0  0  0  0  0  0  0
   -2.8147    3.4635    0.0000 H   0  0  0  0  0  0  0  0  0  0  0  0
   -4.7953   -0.0708    0.0000 H   0  0  0  0  0  0  0  0  0  0  0  0
   -3.1799   -0.9662    0.0000 H   0  0  0  0  0  0  0  0  0  0  0  0
   -4.0007    1.8961    0.0000 H   0  0  0  0  0  0  0  0  0  0  0  0
  1  2  1  0
  2  3  1  0
  3  4  1  0
  4  5  1  0
  5  6  1  0
  6  7  1  0
  7  8  1  0
  8  9  1  0
  9 10  1  0
 10 11  1  0
 11 12  1  0
 12 13  1  0
 12 14  1  0
 14 15  1  0
 15 16  1  0
 16 17  1  0
 17 18  1  0
 18 19  1  0
 19 20  1  0
 20 21  1  0
 21 22  1  0
 22 23  1  0
 23 24  1  0
 24 25  1  0
 25 26  1  0
 26 27  1  0
 27 28  1  0
 14 29  1  0
 29 30  1  0
 30 31  1  0
  5  3  1  0
 30  6  1  0
 30  4  1  0
 16 11  1  0
 20 17  1  0
 27 23  1  0
 21 18  1  0
 28 23  1  0
 28 26  1  0
  1 32  1  0
  1 33  1  0
  1 34  1  0
  2 35  1  0
  2 36  1  0
  3 37  1  0
  4 38  1  0
  6 39  1  0
  7 40  1  0
  7 41  1  0
  8 42  1  0
  9 43  1  0
  9 44  1  0
 10 45  1  0
 10 46  1  0
 12 47  1  0
 13 48  1  0
 14 49  1  0
 15 50  1  0
 15 51  1  0
 16 52  1  0
 17 53  1  0
 18 54  1  0
 19 55  1  0
 20 56  1  0
 21 57  1  0
 22 58  1  0
 22 59  1  0
 24 60  1  0
 24 61  1  0
 25 62  1  0
 25 63  1  0
 26 64  1  0
 27 65  1  0
 28 66  1  0
 29 67  1  0
 29 68  1  0
 31 69  1  0
 31 70  1  0
 31 71  1  0
M  END
$$$$
