
     RDKit          2D

 19 20  0  0  0  0  0  0  0  0999 V2000
   -5.0213   -2.4200    0.0000 C   0  0  0  0  0  0  0  0  0  0  0  0
   -3.5441   -2.1595    0.0000 C   0  0  0  0  0  0  0  0  0  0  0  0
   -3.0311   -0.7500    0.0000 C   0  0  0  0  0  0  0  0  0  0  0  0
   -3.0311    0.7500    0.0000 O   0  0  0  0  0  0  0  0  0  0  0  0
   -1.7321    1.5000    0.0000 C   0  0  0  0  0  0  0  0  0  0  0  0
   -1.7321    3.0000    0.0000 O   0  0  0  0  0  0  0  0  0  0  0  0
   -0.4330    0.7500    0.0000 C   0  0  0  0  0  0  0  0  0  0  0  0
    0.8660    0.0000    0.0000 C   0  0  0  0  0  0  0  0  0  0  0  0
   -0.4330   -0.7500    0.0000 C   0  0  0  0  0  0  0  0  0  0  0  0
   -1.1830    0.5490    0.0000 O   0  0  0  0  0  0  0  0  0  0  0  0
   -1.7321   -1.5000    0.0000 O   0  0  0  0  0  0  0  0  0  0  0  0
   -5.5344   -3.8296    0.0000 H   0  0  0  0  0  0  0  0  0  0  0  0
   -5.9855   -1.2709    0.0000 H   0  0  0  0  0  0  0  0  0  0  0  0
   -2.5799   -3.3086    0.0000 H   0  0  0  0  0  0  0  0  0  0  0  0
   -4.5083   -0.4895    0.0000 H   0  0  0  0  0  0  0  0  0  0  0  0
    0.4697    1.9479    0.0000 H   0  0  0  0  0  0  0  0  0  0  0  0
    1.8302    1.1491    0.0000 H   0  0  0  0  0  0  0  0  0  0  0  0
    1.8302   -1.1491    0.0000 H   0  0  0  0  0  0  0  0  0  0  0  0
   -0.5970    1.9298    0.0000 H   0  0  0  0  0  0  0  0  0  0  0  0
  1  2  2  3
  2  3  1  0
  3  4  1  0
  4  5  1  0
  5  6  2  0
  5  7  1  0
  7  8  1  0
  8  9  1  0
  9 10  1  0
  9 11  1  0
 11  3  1  0
  9  7  1  0
  1 12  1  0
  1 13  1  0
  2 14  1  0
  3 15  1  0
  7 16  1  0
  8 17  1  0
  8 18  1  0
 10 19  1  0
M  END
$$$$
