
     RDKit          2D

 37 38  0  0  0  0  0  0  0  0999 V2000
    2.5112    4.8003    0.0000 C   0  0  0  0  0  0  0  0  0  0  0  0
    1.1017    4.2872    0.0000 S   0  0  0  0  0  5  0  0  0  0  0  0
   -0.3079    3.7742    0.0000 C   0  0  0  0  0  0  0  0  0  0  0  0
   -1.7174    3.2612    0.0000 C   0  0  0  0  0  0  0  0  0  0  0  0
   -3.1270    2.7482    0.0000 Se  0  0  0  0  0  2  0  0  0  0  0  0
   -3.3874    1.2709    0.0000 C   0  0  0  0  0  0  0  0  0  0  0  0
   -1.9102    1.0105    0.0000 C   0  0  0  0  0  0  0  0  0  0  0  0
   -0.4330    0.7500    0.0000 C   0  0  0  0  0  0  0  0  0  0  0  0
    0.8660   -0.0000    0.0000 C   0  0  0  0  0  0  0  0  0  0  0  0
   -0.4330   -0.7500    0.0000 C   0  0  0  0  0  0  0  0  0  0  0  0
   -4.8646    1.5314    0.0000 C   0  0  0  0  0  0  0  0  0  0  0  0
   -6.3419    1.7919    0.0000 C   0  0  0  0  0  0  0  0  0  0  0  0
   -7.6409    2.5419    0.0000 C   0  0  0  0  0  0  0  0  0  0  0  0
   -6.3419    3.2919    0.0000 C   0  0  0  0  0  0  0  0  0  0  0  0
    2.7717    6.2775    0.0000 H   0  0  0  0  0  0  0  0  0  0  0  0
    3.6603    3.8361    0.0000 H   0  0  0  0  0  0  0  0  0  0  0  0
    1.6147    2.8777    0.0000 H   0  0  0  0  0  0  0  0  0  0  0  0
    0.5886    5.6968    0.0000 H   0  0  0  0  0  0  0  0  0  0  0  0
   -0.8209    5.1838    0.0000 H   0  0  0  0  0  0  0  0  0  0  0  0
    0.3731    2.4377    0.0000 H   0  0  0  0  0  0  0  0  0  0  0  0
   -2.2305    4.6707    0.0000 H   0  0  0  0  0  0  0  0  0  0  0  0
   -1.3555    2.5509    0.0000 H   0  0  0  0  0  0  0  0  0  0  0  0
   -3.6479   -0.2063    0.0000 H   0  0  0  0  0  0  0  0  0  0  0  0
   -2.3488   -0.4240    0.0000 H   0  0  0  0  0  0  0  0  0  0  0  0
   -1.4996    1.6937    0.0000 H   0  0  0  0  0  0  0  0  0  0  0  0
    0.2480    2.0865    0.0000 H   0  0  0  0  0  0  0  0  0  0  0  0
    1.8302    1.1491    0.0000 H   0  0  0  0  0  0  0  0  0  0  0  0
    1.8302   -1.1491    0.0000 H   0  0  0  0  0  0  0  0  0  0  0  0
    0.0800   -2.1595    0.0000 H   0  0  0  0  0  0  0  0  0  0  0  0
   -1.8675   -1.1886    0.0000 H   0  0  0  0  0  0  0  0  0  0  0  0
   -5.1251    0.0542    0.0000 H   0  0  0  0  0  0  0  0  0  0  0  0
   -4.4261    2.9659    0.0000 H   0  0  0  0  0  0  0  0  0  0  0  0
   -6.8549    0.3824    0.0000 H   0  0  0  0  0  0  0  0  0  0  0  0
   -8.6051    1.3928    0.0000 H   0  0  0  0  0  0  0  0  0  0  0  0
   -8.6051    3.6910    0.0000 H   0  0  0  0  0  0  0  0  0  0  0  0
   -6.8549    4.7014    0.0000 H   0  0  0  0  0  0  0  0  0  0  0  0
   -4.9074    3.7305    0.0000 H   0  0  0  0  0  0  0  0  0  0  0  0
  1  2  2  3
  2  3  1  0
  3  4  1  0
  4  5  1  0
  5  6  1  0
  6  7  1  0
  7  8  1  0
  8  9  1  0
  9 10  1  0
  6 11  1  0
 11 12  1  0
 12 13  1  0
 13 14  1  0
 10  8  1  0
 14 12  1  0
  1 15  1  0
  1 16  1  0
  2 17  1  0
  2 18  1  0
  3 19  1  0
  3 20  1  0
  4 21  1  0
  4 22  1  0
  6 23  1  0
  7 24  1  0
  7 25  1  0
  8 26  1  0
  9 27  1  0
  9 28  1  0
 10 29  1  0
 10 30  1  0
 11 31  1  0
 11 32  1  0
 12 33  1  0
 13 34  1  0
 13 35  1  0
 14 36  1  0
 14 37  1  0
M  RAD  1   2   2
M  END
$$$$
