
     RDKit          2D

 73 78  0  0  0  0  0  0  0  0999 V2000
   -5.7125   -6.3400    0.0000 C   0  0  0  0  0  0  0  0  0  0  0  0
   -4.2353   -6.0796    0.0000 C   0  0  0  0  0  0  0  0  0  0  0  0
   -2.7581   -5.8191    0.0000 N   0  0  0  0  0  0  0  0  0  0  0  0
   -1.7939   -6.9681    0.0000 C   0  0  0  0  0  0  0  0  0  0  0  0
   -0.8297   -8.1172    0.0000 C   0  0  0  0  0  0  0  0  0  0  0  0
   -0.3167   -9.5268    0.0000 O   0  0  0  0  0  0  0  0  0  0  0  0
   -1.7939   -9.2663    0.0000 C   0  0  0  0  0  0  0  0  0  0  0  0
   -2.3070  -10.6758    0.0000 O   0  0  0  0  0  0  0  0  0  0  0  0
   -2.2451   -4.4095    0.0000 C   0  0  0  0  0  0  0  0  0  0  0  0
   -1.7321   -3.0000    0.0000 C   0  0  0  0  0  0  0  0  0  0  0  0
   -0.4330   -3.7500    0.0000 C   0  0  0  0  0  0  0  0  0  0  0  0
    0.8660   -3.0000    0.0000 C   0  0  0  0  0  0  0  0  0  0  0  0
    0.8660   -1.5000    0.0000 C   0  0  0  0  0  0  0  0  0  0  0  0
   -0.4330    0.7500    0.0000 C   0  0  0  0  0  0  0  0  0  0  0  0
    0.8660    0.0000    0.0000 C   0  0  0  0  0  0  0  0  0  0  0  0
    1.8302    1.1491    0.0000 C   0  0  0  0  0  0  0  0  0  0  0  0
   -0.4330   -0.7500    0.0000 C   0  0  0  0  0  0  0  0  0  0  0  0
   -1.7321   -1.5000    0.0000 C   0  0  0  0  0  0  0  0  0  0  0  0
   -3.0311   -0.7500    0.0000 C   0  0  0  0  0  0  0  0  0  0  0  0
   -4.3301    0.0000    0.0000 C   0  0  0  0  0  0  0  0  0  0  0  0
   -3.0311    0.7500    0.0000 C   0  0  0  0  0  0  0  0  0  0  0  0
   -1.7321    1.5000    0.0000 C   0  0  0  0  0  0  0  0  0  0  0  0
   -0.7679    2.6491    0.0000 C   0  0  0  0  0  0  0  0  0  0  0  0
    0.1963    3.7981    0.0000 C   0  0  0  0  0  0  0  0  0  0  0  0
   -0.3167    5.2077    0.0000 C   0  0  0  0  0  0  0  0  0  0  0  0
    0.6475    6.3567    0.0000 C   0  0  0  0  0  0  0  0  0  0  0  0
    1.6116    7.5058    0.0000 C   0  0  0  0  0  0  0  0  0  0  0  0
    2.5758    8.6549    0.0000 N   0  0  0  0  0  0  0  0  0  0  0  0
    2.0628   10.0644    0.0000 C   0  0  0  0  0  0  0  0  0  0  0  0
    3.0270   11.2135    0.0000 N   0  0  0  0  0  0  0  0  0  0  0  0
    2.5139   12.6230    0.0000 C   0  0  0  0  0  0  0  0  0  0  0  0
    2.0009   14.0326    0.0000 O   0  0  0  0  0  0  0  0  0  0  0  0
   -7.1897   -6.6005    0.0000 H   0  0  0  0  0  0  0  0  0  0  0  0
   -5.9730   -4.8628    0.0000 H   0  0  0  0  0  0  0  0  0  0  0  0
   -5.4521   -7.8172    0.0000 H   0  0  0  0  0  0  0  0  0  0  0  0
   -4.4958   -4.6023    0.0000 H   0  0  0  0  0  0  0  0  0  0  0  0
   -3.9749   -7.5568    0.0000 H   0  0  0  0  0  0  0  0  0  0  0  0
   -0.6449   -6.0040    0.0000 H   0  0  0  0  0  0  0  0  0  0  0  0
   -2.9262   -7.7034    0.0000 H   0  0  0  0  0  0  0  0  0  0  0  0
    0.4693   -7.3672    0.0000 H   0  0  0  0  0  0  0  0  0  0  0  0
   -3.0366   -8.7388    0.0000 H   0  0  0  0  0  0  0  0  0  0  0  0
   -3.7842  -10.9363    0.0000 H   0  0  0  0  0  0  0  0  0  0  0  0
   -3.5137   -3.9478    0.0000 H   0  0  0  0  0  0  0  0  0  0  0  0
   -1.5348   -4.7715    0.0000 H   0  0  0  0  0  0  0  0  0  0  0  0
   -3.0788   -3.0942    0.0000 H   0  0  0  0  0  0  0  0  0  0  0  0
    0.5312   -4.8991    0.0000 H   0  0  0  0  0  0  0  0  0  0  0  0
   -0.8672   -4.4186    0.0000 H   0  0  0  0  0  0  0  0  0  0  0  0
    2.3432   -2.7395    0.0000 H   0  0  0  0  0  0  0  0  0  0  0  0
    1.3791   -4.4095    0.0000 H   0  0  0  0  0  0  0  0  0  0  0  0
    2.2468   -0.9139    0.0000 H   0  0  0  0  0  0  0  0  0  0  0  0
    1.9631   -1.0230    0.0000 H   0  0  0  0  0  0  0  0  0  0  0  0
    2.7944    2.2981    0.0000 H   0  0  0  0  0  0  0  0  0  0  0  0
    2.9793    0.1849    0.0000 H   0  0  0  0  0  0  0  0  0  0  0  0
    0.5722    1.9660    0.0000 H   0  0  0  0  0  0  0  0  0  0  0  0
   -3.0311   -2.2500    0.0000 H   0  0  0  0  0  0  0  0  0  0  0  0
   -4.0731   -1.8290    0.0000 H   0  0  0  0  0  0  0  0  0  0  0  0
   -5.2943   -1.1491    0.0000 H   0  0  0  0  0  0  0  0  0  0  0  0
   -5.2943    1.1491    0.0000 H   0  0  0  0  0  0  0  0  0  0  0  0
   -1.9890   -0.3290    0.0000 H   0  0  0  0  0  0  0  0  0  0  0  0
   -2.6962    2.6491    0.0000 H   0  0  0  0  0  0  0  0  0  0  0  0
    0.2551    1.5520    0.0000 H   0  0  0  0  0  0  0  0  0  0  0  0
   -1.9169    3.6132    0.0000 H   0  0  0  0  0  0  0  0  0  0  0  0
    1.6735    3.5377    0.0000 H   0  0  0  0  0  0  0  0  0  0  0  0
   -1.7939    5.4681    0.0000 H   0  0  0  0  0  0  0  0  0  0  0  0
   -0.5016    7.3209    0.0000 H   0  0  0  0  0  0  0  0  0  0  0  0
    1.7965    5.3926    0.0000 H   0  0  0  0  0  0  0  0  0  0  0  0
    2.7607    6.5416    0.0000 H   0  0  0  0  0  0  0  0  0  0  0  0
    0.4626    8.4700    0.0000 H   0  0  0  0  0  0  0  0  0  0  0  0
    4.0530    8.3944    0.0000 H   0  0  0  0  0  0  0  0  0  0  0  0
    0.5856   10.3249    0.0000 H   0  0  0  0  0  0  0  0  0  0  0  0
    3.9235   13.1360    0.0000 H   0  0  0  0  0  0  0  0  0  0  0  0
    1.1044   12.1100    0.0000 H   0  0  0  0  0  0  0  0  0  0  0  0
    0.5237   14.2930    0.0000 H   0  0  0  0  0  0  0  0  0  0  0  0
  1  2  1  0
  2  3  1  0
  3  4  1  0
  4  5  1  0
  5  6  1  0
  6  7  1  0
  7  8  1  0
  3  9  1  0
  9 10  1  0
 10 11  1  0
 11 12  1  0
 12 13  1  0
 13 14  1  0
 14 15  1  0
 15 16  1  0
 17 15  1  6
 17 18  1  0
 18 19  1  0
 19 20  1  0
 20 21  1  0
 21 22  1  0
 22 23  1  0
 23 24  1  0
 24 25  2  3
 25 26  1  0
 26 27  1  0
 27 28  1  0
 28 29  1  0
 29 30  2  3
 30 31  1  0
 31 32  1  0
  7  5  1  0
 18 10  1  0
 21 19  1  0
 17 13  1  0
 14 17  1  1
 22 14  1  0
  1 33  1  0
  1 34  1  0
  1 35  1  0
  2 36  1  0
  2 37  1  0
  4 38  1  0
  4 39  1  0
  5 40  1  1
  7 41  1  6
  8 42  1  0
  9 43  1  0
  9 44  1  0
 10 45  1  6
 11 46  1  0
 11 47  1  0
 12 48  1  0
 12 49  1  0
 13 50  1  6
 15 51  1  1
 16 52  1  0
 16 53  1  0
 16 54  1  0
 18 55  1  6
 19 56  1  6
 20 57  1  0
 20 58  1  0
 21 59  1  6
 22 60  1  6
 23 61  1  0
 23 62  1  0
 24 63  1  0
 25 64  1  0
 26 65  1  0
 26 66  1  0
 27 67  1  0
 27 68  1  0
 28 69  1  0
 29 70  1  0
 31 71  1  0
 31 72  1  0
 32 73  1  0
M  END
$$$$
