
     RDKit          2D

102110  0  0  0  0  0  0  0  0999 V2000
   -0.8992   -5.6008    0.0000 C   0  0  0  0  0  0  0  0  0  0  0  0
   -1.8124   -4.4108    0.0000 C   0  0  0  0  0  0  0  0  0  0  0  0
   -2.7255   -3.2207    0.0000 C   0  0  0  0  0  0  0  0  0  0  0  0
   -3.0044   -4.6946    0.0000 C   0  0  0  0  0  0  0  0  0  0  0  0
   -4.2437   -5.5396    0.0000 C   0  0  0  0  0  0  0  0  0  0  0  0
   -5.7176   -5.2607    0.0000 C   0  0  0  0  0  0  0  0  0  0  0  0
   -7.1334   -5.7561    0.0000 O   0  0  0  0  0  0  0  0  0  0  0  0
   -7.4123   -7.2300    0.0000 C   0  0  0  0  0  0  0  0  0  0  0  0
   -7.6911   -8.7038    0.0000 As  0  0  0  0  0  3  0  0  0  0  0  0
   -9.1070   -9.1992    0.0000 C   0  0  0  0  0  0  0  0  0  0  0  0
  -10.5228   -9.6946    0.0000 N   0  0  0  0  0  0  0  0  0  0  0  0
  -11.6598   -8.7162    0.0000 C   0  0  0  0  0  0  0  0  0  0  0  0
  -12.7967   -7.7378    0.0000 C   0  0  0  0  0  0  0  0  0  0  0  0
  -12.0306   -6.4482    0.0000 N   0  0  0  0  0  0  0  0  0  0  0  0
  -12.7643   -5.1399    0.0000 C   0  0  0  0  0  0  0  0  0  0  0  0
  -14.1997   -7.2072    0.0000 C   0  0  0  0  0  0  0  0  0  0  0  0
  -13.9577   -8.6876    0.0000 C   0  0  0  0  0  0  0  0  0  0  0  0
  -15.3735   -9.1830    0.0000 C   0  0  0  0  0  0  0  0  0  0  0  0
   -6.5626   -4.0213    0.0000 O   0  0  0  0  0  0  0  0  0  0  0  0
   -6.2837   -2.5475    0.0000 C   0  0  0  0  0  0  0  0  0  0  0  0
   -4.7867   -2.6427    0.0000 C   0  0  0  0  0  0  0  0  0  0  0  0
   -3.1284   -0.5480    0.0000 C   0  0  0  0  0  0  0  0  0  0  0  0
   -1.7321    0.0000    0.0000 C   0  0  0  0  0  0  0  0  0  0  0  0
   -0.4330    0.7500    0.0000 C   0  0  0  0  0  0  0  0  0  0  0  0
    0.8660    0.0000    0.0000 C   0  0  0  0  0  0  0  0  0  0  0  0
    1.8302    1.1491    0.0000 C   0  0  0  0  0  0  0  0  0  0  0  0
    2.7944    2.2981    0.0000 C   0  0  0  0  0  0  0  0  0  0  0  0
    3.7586    3.4472    0.0000 C   0  0  0  0  0  0  0  0  0  0  0  0
    3.9435    1.3340    0.0000 C   0  0  0  0  0  0  0  0  0  0  0  0
    5.0925    0.3698    0.0000 C   0  0  0  0  0  0  0  0  0  0  0  0
    6.2416   -0.5944    0.0000 O   0  0  0  0  0  0  0  0  0  0  0  0
   -0.4330   -0.7500    0.0000 C   0  0  0  0  0  0  0  0  0  0  0  0
   -0.2094   -2.2332    0.0000 N   0  0  0  0  0  0  0  0  0  0  0  0
   -1.2297   -3.3328    0.0000 C   0  0  0  0  0  0  0  0  0  0  0  0
   -3.5705   -1.9814    0.0000 C   0  0  0  0  0  0  0  0  0  0  0  0
   -5.0443   -1.7025    0.0000 C   0  0  0  0  0  0  0  0  0  0  0  0
   -5.1284   -3.2001    0.0000 C   0  0  0  0  0  0  0  0  0  0  0  0
   -6.3958   -1.0517    0.0000 C   0  0  0  0  0  0  0  0  0  0  0  0
   -7.8883   -0.9023    0.0000 C   0  0  0  0  0  0  0  0  0  0  0  0
   -9.3809   -0.7530    0.0000 C   0  0  0  0  0  0  0  0  0  0  0  0
   -7.7390    0.5902    0.0000 C   0  0  0  0  0  0  0  0  0  0  0  0
   -8.1091    2.0438    0.0000 C   0  0  0  0  0  0  0  0  0  0  0  0
   -9.1829    0.9965    0.0000 C   0  0  0  0  0  0  0  0  0  0  0  0
  -10.4008    1.8721    0.0000 C   0  0  0  0  0  0  0  0  0  0  0  0
    0.0139   -6.7908    0.0000 H   0  0  0  0  0  0  0  0  0  0  0  0
   -1.7494   -5.5162    0.0000 H   0  0  0  0  0  0  0  0  0  0  0  0
   -4.7250   -6.9603    0.0000 H   0  0  0  0  0  0  0  0  0  0  0  0
   -3.1068   -6.5180    0.0000 H   0  0  0  0  0  0  0  0  0  0  0  0
   -5.6055   -6.7565    0.0000 H   0  0  0  0  0  0  0  0  0  0  0  0
   -8.8861   -6.9511    0.0000 H   0  0  0  0  0  0  0  0  0  0  0  0
   -5.9834   -7.6864    0.0000 H   0  0  0  0  0  0  0  0  0  0  0  0
   -6.5542   -9.6822    0.0000 H   0  0  0  0  0  0  0  0  0  0  0  0
   -9.6024   -7.7834    0.0000 H   0  0  0  0  0  0  0  0  0  0  0  0
   -8.6116  -10.6151    0.0000 H   0  0  0  0  0  0  0  0  0  0  0  0
  -10.8017  -11.1685    0.0000 H   0  0  0  0  0  0  0  0  0  0  0  0
  -10.6813   -7.5793    0.0000 H   0  0  0  0  0  0  0  0  0  0  0  0
  -12.4923   -9.9640    0.0000 H   0  0  0  0  0  0  0  0  0  0  0  0
  -10.5307   -6.4669    0.0000 H   0  0  0  0  0  0  0  0  0  0  0  0
  -13.4981   -3.8316    0.0000 H   0  0  0  0  0  0  0  0  0  0  0  0
  -11.4560   -4.4062    0.0000 H   0  0  0  0  0  0  0  0  0  0  0  0
  -14.1523   -5.7087    0.0000 H   0  0  0  0  0  0  0  0  0  0  0  0
  -14.1026   -5.7104    0.0000 H   0  0  0  0  0  0  0  0  0  0  0  0
  -15.6862   -7.0058    0.0000 H   0  0  0  0  0  0  0  0  0  0  0  0
  -13.3889  -10.0755    0.0000 H   0  0  0  0  0  0  0  0  0  0  0  0
  -16.7894   -9.6784    0.0000 H   0  0  0  0  0  0  0  0  0  0  0  0
  -14.8781  -10.5988    0.0000 H   0  0  0  0  0  0  0  0  0  0  0  0
  -16.0378   -7.8381    0.0000 H   0  0  0  0  0  0  0  0  0  0  0  0
   -4.8557   -4.1411    0.0000 H   0  0  0  0  0  0  0  0  0  0  0  0
   -3.4023   -3.2201    0.0000 H   0  0  0  0  0  0  0  0  0  0  0  0
   -4.2279    0.4722    0.0000 H   0  0  0  0  0  0  0  0  0  0  0  0
   -2.3829    1.3515    0.0000 H   0  0  0  0  0  0  0  0  0  0  0  0
   -0.4330    2.2500    0.0000 H   0  0  0  0  0  0  0  0  0  0  0  0
    1.8302   -1.1491    0.0000 H   0  0  0  0  0  0  0  0  0  0  0  0
    2.8532    0.0520    0.0000 H   0  0  0  0  0  0  0  0  0  0  0  0
    0.6811    2.1132    0.0000 H   0  0  0  0  0  0  0  0  0  0  0  0
    1.6453    3.2623    0.0000 H   0  0  0  0  0  0  0  0  0  0  0  0
    4.7228    4.5963    0.0000 H   0  0  0  0  0  0  0  0  0  0  0  0
    2.6095    4.4114    0.0000 H   0  0  0  0  0  0  0  0  0  0  0  0
    5.0166    2.6303    0.0000 H   0  0  0  0  0  0  0  0  0  0  0  0
    5.0405    2.3569    0.0000 H   0  0  0  0  0  0  0  0  0  0  0  0
    3.1265    0.0759    0.0000 H   0  0  0  0  0  0  0  0  0  0  0  0
    6.0567    1.5188    0.0000 H   0  0  0  0  0  0  0  0  0  0  0  0
    4.1283   -0.7793    0.0000 H   0  0  0  0  0  0  0  0  0  0  0  0
    5.9811   -2.0716    0.0000 H   0  0  0  0  0  0  0  0  0  0  0  0
    1.2239   -2.6754    0.0000 H   0  0  0  0  0  0  0  0  0  0  0  0
   -0.6817   -4.7291    0.0000 H   0  0  0  0  0  0  0  0  0  0  0  0
   -4.3447   -0.6966    0.0000 H   0  0  0  0  0  0  0  0  0  0  0  0
   -5.0294   -4.6969    0.0000 H   0  0  0  0  0  0  0  0  0  0  0  0
   -6.4902   -3.8291    0.0000 H   0  0  0  0  0  0  0  0  0  0  0  0
   -3.6522   -3.4662    0.0000 H   0  0  0  0  0  0  0  0  0  0  0  0
   -5.8166    0.3320    0.0000 H   0  0  0  0  0  0  0  0  0  0  0  0
   -8.0377   -2.3949    0.0000 H   0  0  0  0  0  0  0  0  0  0  0  0
  -10.8734   -0.6036    0.0000 H   0  0  0  0  0  0  0  0  0  0  0  0
   -9.5302   -2.2455    0.0000 H   0  0  0  0  0  0  0  0  0  0  0  0
   -9.5971    0.7314    0.0000 H   0  0  0  0  0  0  0  0  0  0  0  0
   -6.2680    0.8838    0.0000 H   0  0  0  0  0  0  0  0  0  0  0  0
   -6.7419    2.6608    0.0000 H   0  0  0  0  0  0  0  0  0  0  0  0
   -8.7967    3.3770    0.0000 H   0  0  0  0  0  0  0  0  0  0  0  0
  -10.1414   -0.1573    0.0000 H   0  0  0  0  0  0  0  0  0  0  0  0
  -11.6187    2.7477    0.0000 H   0  0  0  0  0  0  0  0  0  0  0  0
  -11.2765    0.6542    0.0000 H   0  0  0  0  0  0  0  0  0  0  0  0
   -9.6802    3.1877    0.0000 H   0  0  0  0  0  0  0  0  0  0  0  0
  1  2  3  0
  2  3  1  0
  3  4  1  0
  4  5  1  0
  5  6  1  0
  6  7  1  0
  7  8  1  0
  8  9  1  0
  9 10  1  0
 10 11  1  0
 11 12  1  0
 12 13  1  0
 13 14  1  0
 14 15  1  0
 13 16  1  0
 16 17  1  0
 17 18  1  0
  6 19  1  0
 19 20  1  0
 20 21  1  0
 21 22  1  0
 22 23  1  0
 23 24  1  0
 24 25  1  0
 25 26  1  0
 26 27  1  0
 27 28  1  0
 27 29  1  0
 29 30  1  0
 30 31  1  0
 25 32  1  0
 32 33  1  0
 33 34  1  0
 22 35  1  0
 35 36  1  0
 36 37  1  0
 36 38  1  0
 38 39  1  0
 39 40  1  0
 39 41  1  0
 41 42  1  0
 42 43  1  0
 43 44  1  0
 34  3  1  0
 43 41  1  0
 35  3  1  0
 34  4  1  0
 17 13  1  0
 36 20  1  0
 38 20  1  0
 32 23  1  0
 32 24  1  0
  1 45  1  0
  4 46  1  0
  5 47  1  0
  5 48  1  0
  6 49  1  0
  8 50  1  0
  8 51  1  0
  9 52  1  0
 10 53  1  0
 10 54  1  0
 11 55  1  0
 12 56  1  0
 12 57  1  0
 14 58  1  0
 15 59  1  0
 15 60  1  0
 15 61  1  0
 16 62  1  0
 16 63  1  0
 17 64  1  0
 18 65  1  0
 18 66  1  0
 18 67  1  0
 21 68  1  0
 21 69  1  0
 22 70  1  0
 23 71  1  0
 24 72  1  0
 25 73  1  0
 26 74  1  0
 26 75  1  0
 27 76  1  0
 28 77  1  0
 28 78  1  0
 28 79  1  0
 29 80  1  0
 29 81  1  0
 30 82  1  0
 30 83  1  0
 31 84  1  0
 33 85  1  0
 34 86  1  0
 35 87  1  0
 37 88  1  0
 37 89  1  0
 37 90  1  0
 38 91  1  0
 39 92  1  0
 40 93  1  0
 40 94  1  0
 40 95  1  0
 41 96  1  0
 42 97  1  0
 42 98  1  0
 43 99  1  0
 44100  1  0
 44101  1  0
 44102  1  0
M  END
$$$$
