
     RDKit          2D

 58 59  0  0  0  0  0  0  0  0999 V2000
   -0.0905    5.3958    0.0000 C   0  0  0  0  0  0  0  0  0  0  0  0
    0.1700    3.9186    0.0000 C   0  0  0  0  0  0  0  0  0  0  0  0
   -0.9791    2.9544    0.0000 C   0  0  0  0  0  0  0  0  0  0  0  0
   -2.3886    2.4414    0.0000 C   0  0  0  0  0  0  0  0  0  0  0  0
   -2.6491    0.9642    0.0000 C   0  0  0  0  0  0  0  0  0  0  0  0
   -1.5000    0.0000    0.0000 C   0  0  0  0  0  0  0  0  0  0  0  0
   -2.6491   -0.9642    0.0000 C   0  0  0  0  0  0  0  0  0  0  0  0
   -3.7981   -1.9284    0.0000 C   0  0  0  0  0  0  0  0  0  0  0  0
   -4.9472   -2.8925    0.0000 C   0  0  0  0  0  0  0  0  0  0  0  0
   -6.0963   -3.8567    0.0000 C   0  0  0  0  0  0  0  0  0  0  0  0
   -3.9830   -4.0416    0.0000 C   0  0  0  0  0  0  0  0  0  0  0  0
   -3.0188   -5.1907    0.0000 C   0  0  0  0  0  0  0  0  0  0  0  0
   -2.0547   -6.3397    0.0000 C   0  0  0  0  0  0  0  0  0  0  0  0
   -3.2037   -7.3039    0.0000 C   0  0  0  0  0  0  0  0  0  0  0  0
   -2.2395   -8.4530    0.0000 C   0  0  0  0  0  0  0  0  0  0  0  0
   -1.2754   -9.6021    0.0000 O   0  0  0  0  0  0  0  0  0  0  0  0
   -1.0905   -7.4888    0.0000 C   0  0  0  0  0  0  0  0  0  0  0  0
    0.0586   -6.5246    0.0000 C   0  0  0  0  0  0  0  0  0  0  0  0
    1.2077   -5.5604    0.0000 C   0  0  0  0  0  0  0  0  0  0  0  0
   -0.0905    0.5130    0.0000 C   0  0  0  0  0  0  0  0  0  0  0  0
    0.1700    1.9902    0.0000 C   0  0  0  0  0  0  0  0  0  0  0  0
    1.5796    2.5033    0.0000 C   0  0  0  0  0  0  0  0  0  0  0  0
    1.0586    6.3600    0.0000 H   0  0  0  0  0  0  0  0  0  0  0  0
   -1.5000    5.9088    0.0000 H   0  0  0  0  0  0  0  0  0  0  0  0
    1.6316    3.5812    0.0000 H   0  0  0  0  0  0  0  0  0  0  0  0
   -1.7291    4.2535    0.0000 H   0  0  0  0  0  0  0  0  0  0  0  0
   -2.6491    3.9186    0.0000 H   0  0  0  0  0  0  0  0  0  0  0  0
   -3.8886    2.4414    0.0000 H   0  0  0  0  0  0  0  0  0  0  0  0
   -4.0586    1.4772    0.0000 H   0  0  0  0  0  0  0  0  0  0  0  0
   -3.1288    0.3276    0.0000 H   0  0  0  0  0  0  0  0  0  0  0  0
   -0.7500   -1.2990    0.0000 H   0  0  0  0  0  0  0  0  0  0  0  0
   -3.2321   -0.4205    0.0000 H   0  0  0  0  0  0  0  0  0  0  0  0
   -1.6849   -2.1132    0.0000 H   0  0  0  0  0  0  0  0  0  0  0  0
   -4.7623   -0.7793    0.0000 H   0  0  0  0  0  0  0  0  0  0  0  0
   -2.7011   -2.9513    0.0000 H   0  0  0  0  0  0  0  0  0  0  0  0
   -5.9114   -1.7435    0.0000 H   0  0  0  0  0  0  0  0  0  0  0  0
   -7.2453   -4.8209    0.0000 H   0  0  0  0  0  0  0  0  0  0  0  0
   -7.0604   -2.7077    0.0000 H   0  0  0  0  0  0  0  0  0  0  0  0
   -5.2793   -5.1148    0.0000 H   0  0  0  0  0  0  0  0  0  0  0  0
   -5.0060   -5.1387    0.0000 H   0  0  0  0  0  0  0  0  0  0  0  0
   -2.7250   -3.2247    0.0000 H   0  0  0  0  0  0  0  0  0  0  0  0
   -4.2769   -6.0076    0.0000 H   0  0  0  0  0  0  0  0  0  0  0  0
   -1.8698   -4.2265    0.0000 H   0  0  0  0  0  0  0  0  0  0  0  0
   -1.0317   -5.2427    0.0000 H   0  0  0  0  0  0  0  0  0  0  0  0
   -4.3528   -8.2681    0.0000 H   0  0  0  0  0  0  0  0  0  0  0  0
   -4.3008   -6.2810    0.0000 H   0  0  0  0  0  0  0  0  0  0  0  0
   -3.3886   -9.4172    0.0000 H   0  0  0  0  0  0  0  0  0  0  0  0
   -1.7884  -11.0116    0.0000 H   0  0  0  0  0  0  0  0  0  0  0  0
   -0.1263   -8.6379    0.0000 H   0  0  0  0  0  0  0  0  0  0  0  0
    1.0228   -7.6737    0.0000 H   0  0  0  0  0  0  0  0  0  0  0  0
   -0.7583   -5.2666    0.0000 H   0  0  0  0  0  0  0  0  0  0  0  0
    2.3567   -4.5963    0.0000 H   0  0  0  0  0  0  0  0  0  0  0  0
    2.1718   -6.7095    0.0000 H   0  0  0  0  0  0  0  0  0  0  0  0
    0.2435   -4.4114    0.0000 H   0  0  0  0  0  0  0  0  0  0  0  0
    0.1700   -0.9642    0.0000 H   0  0  0  0  0  0  0  0  0  0  0  0
    1.4095    0.5130    0.0000 H   0  0  0  0  0  0  0  0  0  0  0  0
    2.0181    3.9377    0.0000 H   0  0  0  0  0  0  0  0  0  0  0  0
    2.7286    1.5391    0.0000 H   0  0  0  0  0  0  0  0  0  0  0  0
  1  2  2  3
  2  3  1  0
  3  4  1  0
  4  5  1  0
  5  6  1  0
  6  7  1  0
  7  8  1  0
  8  9  1  0
  9 10  1  0
  9 11  1  0
 11 12  1  0
 12 13  1  0
 13 14  1  0
 14 15  1  0
 15 16  1  0
 15 17  1  0
 17 18  1  0
 18 19  1  0
  6 20  1  0
 20 21  1  0
 21 22  2  3
 21  3  1  0
 17 13  1  0
  1 23  1  0
  1 24  1  0
  2 25  1  0
  3 26  1  1
  4 27  1  0
  4 28  1  0
  5 29  1  0
  5 30  1  0
  6 31  1  1
  7 32  1  0
  7 33  1  0
  8 34  1  0
  8 35  1  0
  9 36  1  1
 10 37  1  0
 10 38  1  0
 10 39  1  0
 11 40  1  0
 11 41  1  0
 12 42  1  0
 12 43  1  0
 13 44  1  1
 14 45  1  0
 14 46  1  0
 15 47  1  6
 16 48  1  0
 17 49  1  6
 18 50  1  0
 18 51  1  0
 19 52  1  0
 19 53  1  0
 19 54  1  0
 20 55  1  0
 20 56  1  0
 22 57  1  0
 22 58  1  0
M  END
$$$$
