
     RDKit          2D

 63 67  0  0  0  0  0  0  0  0999 V2000
   -1.4931    8.8018    0.0000 C   0  0  0  0  0  0  0  0  0  0  0  0
   -0.1072    8.2278    0.0000 C   0  0  0  0  0  0  0  0  0  0  0  0
    1.0828    9.1410    0.0000 C   0  0  0  0  0  0  0  0  0  0  0  0
    0.0886    6.7406    0.0000 C   0  0  0  0  0  0  0  0  0  0  0  0
    0.2843    5.2535    0.0000 O   0  0  0  0  0  0  0  0  0  0  0  0
   -0.9057    4.3403    0.0000 C   0  0  0  0  0  0  0  0  0  0  0  0
   -1.4797    5.7262    0.0000 C   0  0  0  0  0  0  0  0  0  0  0  0
    0.2843    3.4272    0.0000 C   0  0  0  0  0  0  0  0  0  0  0  0
    0.4801    1.9400    0.0000 C   0  0  0  0  0  0  0  0  0  0  0  0
   -0.4330    0.7500    0.0000 C   0  0  0  0  0  0  0  0  0  0  0  0
    0.8660    0.0000    0.0000 C   0  0  0  0  0  0  0  0  0  0  0  0
   -0.4330   -0.7500    0.0000 C   0  0  0  0  0  0  0  0  0  0  0  0
    0.0800   -2.1595    0.0000 C   0  0  0  0  0  0  0  0  0  0  0  0
   -1.2190   -2.9095    0.0000 C   0  0  0  0  0  0  0  0  0  0  0  0
   -1.9690   -4.2086    0.0000 C   0  0  0  0  0  0  0  0  0  0  0  0
   -2.7190   -5.5076    0.0000 C   0  0  0  0  0  0  0  0  0  0  0  0
   -3.4690   -6.8067    0.0000 C   0  0  0  0  0  0  0  0  0  0  0  0
   -0.6700   -4.9586    0.0000 C   0  0  0  0  0  0  0  0  0  0  0  0
    0.0800   -3.6595    0.0000 C   0  0  0  0  0  0  0  0  0  0  0  0
   -1.9202    0.5542    0.0000 C   0  0  0  0  0  0  0  0  0  0  0  0
   -3.3060   -0.0198    0.0000 C   0  0  0  0  0  0  0  0  0  0  0  0
   -3.1102    1.4674    0.0000 C   0  0  0  0  0  0  0  0  0  0  0  0
   -3.3060    2.9545    0.0000 C   0  0  0  0  0  0  0  0  0  0  0  0
   -4.6918    2.3805    0.0000 C   0  0  0  0  0  0  0  0  0  0  0  0
   -2.3929    4.1446    0.0000 C   0  0  0  0  0  0  0  0  0  0  0  0
   -1.6888   10.2890    0.0000 H   0  0  0  0  0  0  0  0  0  0  0  0
   -2.6831    7.8887    0.0000 H   0  0  0  0  0  0  0  0  0  0  0  0
    2.2728   10.0541    0.0000 H   0  0  0  0  0  0  0  0  0  0  0  0
    0.1696   10.3310    0.0000 H   0  0  0  0  0  0  0  0  0  0  0  0
    1.9959    7.9509    0.0000 H   0  0  0  0  0  0  0  0  0  0  0  0
    1.5757    6.9364    0.0000 H   0  0  0  0  0  0  0  0  0  0  0  0
   -0.8956    6.7321    0.0000 H   0  0  0  0  0  0  0  0  0  0  0  0
   -2.0780    6.7836    0.0000 H   0  0  0  0  0  0  0  0  0  0  0  0
   -0.8389    6.2004    0.0000 H   0  0  0  0  0  0  0  0  0  0  0  0
   -2.9252    5.3253    0.0000 H   0  0  0  0  0  0  0  0  0  0  0  0
    1.1766    4.6329    0.0000 H   0  0  0  0  0  0  0  0  0  0  0  0
    1.7843    3.4141    0.0000 H   0  0  0  0  0  0  0  0  0  0  0  0
    1.9256    2.3408    0.0000 H   0  0  0  0  0  0  0  0  0  0  0  0
    1.5315    0.8702    0.0000 H   0  0  0  0  0  0  0  0  0  0  0  0
    1.9631    1.0230    0.0000 H   0  0  0  0  0  0  0  0  0  0  0  0
    1.9631   -1.0230    0.0000 H   0  0  0  0  0  0  0  0  0  0  0  0
   -1.9102   -1.0105    0.0000 H   0  0  0  0  0  0  0  0  0  0  0  0
    1.5780   -2.0811    0.0000 H   0  0  0  0  0  0  0  0  0  0  0  0
   -2.4011   -1.9861    0.0000 H   0  0  0  0  0  0  0  0  0  0  0  0
   -3.2681   -3.4586    0.0000 H   0  0  0  0  0  0  0  0  0  0  0  0
   -4.0181   -4.7576    0.0000 H   0  0  0  0  0  0  0  0  0  0  0  0
   -1.5211   -6.4104    0.0000 H   0  0  0  0  0  0  0  0  0  0  0  0
   -4.2190   -8.1057    0.0000 H   0  0  0  0  0  0  0  0  0  0  0  0
   -4.7681   -6.0567    0.0000 H   0  0  0  0  0  0  0  0  0  0  0  0
   -2.1700   -7.5567    0.0000 H   0  0  0  0  0  0  0  0  0  0  0  0
    0.6291   -5.7086    0.0000 H   0  0  0  0  0  0  0  0  0  0  0  0
   -1.2560   -6.3394    0.0000 H   0  0  0  0  0  0  0  0  0  0  0  0
    1.5289   -4.0478    0.0000 H   0  0  0  0  0  0  0  0  0  0  0  0
   -1.9202    2.0542    0.0000 H   0  0  0  0  0  0  0  0  0  0  0  0
   -3.1623   -1.5129    0.0000 H   0  0  0  0  0  0  0  0  0  0  0  0
   -4.8046   -0.0852    0.0000 H   0  0  0  0  0  0  0  0  0  0  0  0
   -4.5990    1.2845    0.0000 H   0  0  0  0  0  0  0  0  0  0  0  0
   -4.3574    4.0244    0.0000 H   0  0  0  0  0  0  0  0  0  0  0  0
   -6.0776    1.8065    0.0000 H   0  0  0  0  0  0  0  0  0  0  0  0
   -5.2658    3.7663    0.0000 H   0  0  0  0  0  0  0  0  0  0  0  0
   -4.2910    0.9350    0.0000 H   0  0  0  0  0  0  0  0  0  0  0  0
   -3.6984    4.8832    0.0000 H   0  0  0  0  0  0  0  0  0  0  0  0
   -2.7431    5.6031    0.0000 H   0  0  0  0  0  0  0  0  0  0  0  0
  1  2  2  3
  2  3  1  0
  2  4  1  0
  4  5  1  0
  6  5  1  6
  6  7  1  0
  6  8  1  0
  8  9  1  0
 10  9  1  1
 10 11  1  0
 11 12  1  0
 12 13  1  0
 13 14  1  0
 14 15  1  0
 15 16  1  0
 16 17  1  0
 15 18  1  0
 18 19  1  0
 10 20  1  0
 20 21  1  0
 21 22  1  0
 22 23  1  0
 23 24  1  0
 23 25  1  0
 25  6  1  0
 12 10  1  0
 19 13  1  0
 22 20  1  0
 19 14  1  0
  1 26  1  0
  1 27  1  0
  3 28  1  0
  3 29  1  0
  3 30  1  0
  4 31  1  0
  4 32  1  0
  7 33  1  0
  7 34  1  0
  7 35  1  0
  8 36  1  0
  8 37  1  0
  9 38  1  0
  9 39  1  0
 11 40  1  0
 11 41  1  0
 12 42  1  6
 13 43  1  1
 14 44  1  1
 15 45  1  1
 16 46  1  0
 16 47  1  0
 17 48  1  0
 17 49  1  0
 17 50  1  0
 18 51  1  0
 18 52  1  0
 19 53  1  1
 20 54  1  6
 21 55  1  0
 21 56  1  0
 22 57  1  1
 23 58  1  6
 24 59  1  0
 24 60  1  0
 24 61  1  0
 25 62  1  0
 25 63  1  0
M  END
$$$$
