
     RDKit          2D

 49 52  0  0  0  0  0  0  0  0999 V2000
   -0.1946   -4.0607    0.0000 O   0  0  0  0  0  0  0  0  0  0  0  0
   -0.1946   -2.5607    0.0000 C   0  0  0  0  0  0  0  0  0  0  0  0
    1.1044   -1.8107    0.0000 O   0  0  0  0  0  0  0  0  0  0  0  0
   -1.4937   -1.8107    0.0000 C   0  0  0  0  0  0  0  0  0  0  0  0
   -2.9937   -1.8107    0.0000 C   0  0  0  0  0  0  0  0  0  0  0  0
   -4.0543   -0.7500    0.0000 C   0  0  0  0  0  0  0  0  0  0  0  0
   -4.0543    0.7500    0.0000 C   0  0  0  0  0  0  0  0  0  0  0  0
   -2.9937    1.8107    0.0000 C   0  0  0  0  0  0  0  0  0  0  0  0
   -1.4937    1.8107    0.0000 C   0  0  0  0  0  0  0  0  0  0  0  0
   -2.7837    2.5761    0.0000 C   0  0  0  0  0  0  0  0  0  0  0  0
   -4.2827    2.5225    0.0000 C   0  0  0  0  0  0  0  0  0  0  0  0
   -5.5149    1.6670    0.0000 C   0  0  0  0  0  0  0  0  0  0  0  0
   -6.8948    1.0789    0.0000 C   0  0  0  0  0  0  0  0  0  0  0  0
   -7.2953   -0.3666    0.0000 C   0  0  0  0  0  0  0  0  0  0  0  0
   -6.4149   -1.5810    0.0000 C   0  0  0  0  0  0  0  0  0  0  0  0
   -4.8004   -2.2928    0.0000 C   0  0  0  0  0  0  0  0  0  0  0  0
   -5.8226   -1.1949    0.0000 C   0  0  0  0  0  0  0  0  0  0  0  0
   -6.0889    0.2812    0.0000 C   0  0  0  0  0  0  0  0  0  0  0  0
   -0.4330    0.7500    0.0000 C   0  0  0  0  0  0  0  0  0  0  0  0
    0.8660    0.0000    0.0000 C   0  0  0  0  0  0  0  0  0  0  0  0
    1.8302    1.1491    0.0000 O   0  0  0  0  0  0  0  0  0  0  0  0
   -0.4330   -0.7500    0.0000 N   0  0  0  0  0  0  0  0  0  0  0  0
    2.4034   -2.5607    0.0000 H   0  0  0  0  0  0  0  0  0  0  0  0
   -1.8819   -3.2595    0.0000 H   0  0  0  0  0  0  0  0  0  0  0  0
   -3.5677   -3.1965    0.0000 H   0  0  0  0  0  0  0  0  0  0  0  0
   -4.7380   -1.4579    0.0000 H   0  0  0  0  0  0  0  0  0  0  0  0
   -5.2575   -0.5809    0.0000 H   0  0  0  0  0  0  0  0  0  0  0  0
   -5.1418    0.8644    0.0000 H   0  0  0  0  0  0  0  0  0  0  0  0
   -4.6739    1.2516    0.0000 H   0  0  0  0  0  0  0  0  0  0  0  0
   -4.3744    2.3967    0.0000 H   0  0  0  0  0  0  0  0  0  0  0  0
   -2.9676    3.3104    0.0000 H   0  0  0  0  0  0  0  0  0  0  0  0
   -0.7550    3.1162    0.0000 H   0  0  0  0  0  0  0  0  0  0  0  0
   -1.7651    3.6772    0.0000 H   0  0  0  0  0  0  0  0  0  0  0  0
   -3.1500    4.0307    0.0000 H   0  0  0  0  0  0  0  0  0  0  0  0
   -4.0211    3.9995    0.0000 H   0  0  0  0  0  0  0  0  0  0  0  0
   -5.4942    3.4071    0.0000 H   0  0  0  0  0  0  0  0  0  0  0  0
   -6.6828    2.6082    0.0000 H   0  0  0  0  0  0  0  0  0  0  0  0
   -8.0234    2.0670    0.0000 H   0  0  0  0  0  0  0  0  0  0  0  0
   -8.7715   -0.6330    0.0000 H   0  0  0  0  0  0  0  0  0  0  0  0
   -7.7947   -2.1692    0.0000 H   0  0  0  0  0  0  0  0  0  0  0  0
   -6.5136   -3.0778    0.0000 H   0  0  0  0  0  0  0  0  0  0  0  0
   -5.4029   -3.6665    0.0000 H   0  0  0  0  0  0  0  0  0  0  0  0
   -7.2654   -0.7849    0.0000 H   0  0  0  0  0  0  0  0  0  0  0  0
   -6.3590   -2.5958    0.0000 H   0  0  0  0  0  0  0  0  0  0  0  0
   -7.4183    0.9759    0.0000 H   0  0  0  0  0  0  0  0  0  0  0  0
   -7.2975   -0.6072    0.0000 H   0  0  0  0  0  0  0  0  0  0  0  0
    0.4801    1.9400    0.0000 H   0  0  0  0  0  0  0  0  0  0  0  0
    1.8302   -1.1491    0.0000 H   0  0  0  0  0  0  0  0  0  0  0  0
    3.3074    0.8886    0.0000 H   0  0  0  0  0  0  0  0  0  0  0  0
  1  2  2  0
  2  3  1  0
  2  4  1  0
  4  5  1  0
  5  6  1  0
  6  7  1  0
  7  8  1  0
  8  9  1  0
  9 10  1  0
 10 11  1  0
 11 12  1  0
 12 13  1  0
 13 14  2  0
 14 15  1  0
 15 16  1  0
 16 17  1  0
 17 18  1  0
  9 19  1  0
 19 20  1  0
 20 21  1  0
 20 22  1  0
 22  4  1  0
 16  5  1  0
 22 19  1  0
 18 12  1  0
  3 23  1  0
  4 24  1  0
  5 25  1  0
  6 26  1  0
  6 27  1  0
  7 28  1  0
  7 29  1  0
  8 30  1  0
  8 31  1  0
  9 32  1  0
 10 33  1  0
 10 34  1  0
 11 35  1  0
 11 36  1  0
 12 37  1  0
 13 38  1  0
 14 39  1  0
 15 40  1  0
 15 41  1  0
 16 42  1  0
 17 43  1  0
 17 44  1  0
 18 45  1  0
 18 46  1  0
 19 47  1  0
 20 48  1  0
 21 49  1  0
M  END
$$$$
