
     RDKit          2D

 52 54  0  0  0  0  0  0  0  0999 V2000
   -2.1102   -8.9268    0.0000 C   0  0  0  0  0  0  0  0  0  0  0  0
   -0.7244   -8.3528    0.0000 C   0  0  0  0  0  0  0  0  0  0  0  0
    0.6614   -7.7788    0.0000 C   0  0  0  0  0  0  0  0  0  0  0  0
    2.0472   -7.2048    0.0000 C   0  0  0  0  0  0  0  0  0  0  0  0
    2.6213   -8.5906    0.0000 C   0  0  0  0  0  0  0  0  0  0  0  0
    1.4732   -5.8189    0.0000 O   0  0  0  0  0  0  0  0  0  0  0  0
    0.0874   -6.3930    0.0000 C   0  0  0  0  0  0  0  0  0  0  0  0
   -0.4866   -5.0071    0.0000 C   0  0  0  0  0  0  0  0  0  0  0  0
   -1.0607   -3.6213    0.0000 Sb  0  0  0  0  0  3  0  0  0  0  0  0
   -0.0000   -2.5607    0.0000 C   0  0  0  0  0  0  0  0  0  0  0  0
   -0.0000   -1.0607    0.0000 C   0  0  0  0  0  0  0  0  0  0  0  0
    1.0607    0.0000    0.0000 C   0  0  0  0  0  0  0  0  0  0  0  0
    0.0000    1.0607    0.0000 C   0  0  0  0  0  0  0  0  0  0  0  0
   -1.0607    2.1213    0.0000 C   0  0  0  0  0  0  0  0  0  0  0  0
   -1.0607    0.0000    0.0000 C   0  0  0  0  0  0  0  0  0  0  0  0
   -2.5607    0.0000    0.0000 C   0  0  0  0  0  0  0  0  0  0  0  0
   -3.6213   -1.0607    0.0000 C   0  0  0  0  0  0  0  0  0  0  0  0
   -5.0702   -1.4489    0.0000 O   0  0  0  0  0  0  0  0  0  0  0  0
   -3.6213   -2.5607    0.0000 C   0  0  0  0  0  0  0  0  0  0  0  0
   -2.5607   -3.6213    0.0000 C   0  0  0  0  0  0  0  0  0  0  0  0
   -2.1724   -5.0702    0.0000 O   0  0  0  0  0  0  0  0  0  0  0  0
   -3.4960   -9.5009    0.0000 H   0  0  0  0  0  0  0  0  0  0  0  0
   -1.5362  -10.3126    0.0000 H   0  0  0  0  0  0  0  0  0  0  0  0
   -2.6842   -7.5410    0.0000 H   0  0  0  0  0  0  0  0  0  0  0  0
   -1.1606   -7.5819    0.0000 H   0  0  0  0  0  0  0  0  0  0  0  0
   -0.1504   -9.7386    0.0000 H   0  0  0  0  0  0  0  0  0  0  0  0
    0.8981   -8.6323    0.0000 H   0  0  0  0  0  0  0  0  0  0  0  0
    3.4331   -6.6307    0.0000 H   0  0  0  0  0  0  0  0  0  0  0  0
    3.1953   -9.9764    0.0000 H   0  0  0  0  0  0  0  0  0  0  0  0
    4.0071   -8.0165    0.0000 H   0  0  0  0  0  0  0  0  0  0  0  0
    1.8504   -9.0267    0.0000 H   0  0  0  0  0  0  0  0  0  0  0  0
   -0.7661   -6.6296    0.0000 H   0  0  0  0  0  0  0  0  0  0  0  0
    0.8143   -4.6464    0.0000 H   0  0  0  0  0  0  0  0  0  0  0  0
   -1.6924   -5.8994    0.0000 H   0  0  0  0  0  0  0  0  0  0  0  0
    1.3369   -2.3728    0.0000 H   0  0  0  0  0  0  0  0  0  0  0  0
    0.8125   -3.6388    0.0000 H   0  0  0  0  0  0  0  0  0  0  0  0
    1.1708   -1.3853    0.0000 H   0  0  0  0  0  0  0  0  0  0  0  0
    2.1213    1.0607    0.0000 H   0  0  0  0  0  0  0  0  0  0  0  0
    2.0153   -0.9546    0.0000 H   0  0  0  0  0  0  0  0  0  0  0  0
    1.0607    2.1213    0.0000 H   0  0  0  0  0  0  0  0  0  0  0  0
   -2.1213    3.1820    0.0000 H   0  0  0  0  0  0  0  0  0  0  0  0
   -0.0000    3.1820    0.0000 H   0  0  0  0  0  0  0  0  0  0  0  0
   -2.1022    1.4956    0.0000 H   0  0  0  0  0  0  0  0  0  0  0  0
   -1.5256    1.1225    0.0000 H   0  0  0  0  0  0  0  0  0  0  0  0
   -3.7586    0.9028    0.0000 H   0  0  0  0  0  0  0  0  0  0  0  0
   -2.5346    1.4998    0.0000 H   0  0  0  0  0  0  0  0  0  0  0  0
   -4.5241    0.1373    0.0000 H   0  0  0  0  0  0  0  0  0  0  0  0
   -6.1309   -0.3882    0.0000 H   0  0  0  0  0  0  0  0  0  0  0  0
   -4.5241   -3.7586    0.0000 H   0  0  0  0  0  0  0  0  0  0  0  0
   -5.1211   -2.5346    0.0000 H   0  0  0  0  0  0  0  0  0  0  0  0
   -3.7586   -4.5241    0.0000 H   0  0  0  0  0  0  0  0  0  0  0  0
   -3.2331   -6.1309    0.0000 H   0  0  0  0  0  0  0  0  0  0  0  0
  1  2  1  0
  2  3  1  0
  3  4  1  0
  4  5  1  0
  4  6  1  0
  6  7  1  0
  7  8  1  0
  8  9  1  0
  9 10  1  0
 10 11  1  0
 11 12  1  0
 12 13  1  0
 13 14  1  0
 13 15  1  0
 15 16  1  0
 16 17  1  0
 17 18  1  0
 17 19  1  0
 19 20  1  0
 20 21  1  0
  7  3  1  0
 20  9  1  0
 15 11  1  0
  1 22  1  0
  1 23  1  0
  1 24  1  0
  2 25  1  0
  2 26  1  0
  3 27  1  0
  4 28  1  0
  5 29  1  0
  5 30  1  0
  5 31  1  0
  7 32  1  0
  8 33  1  0
  8 34  1  0
 10 35  1  0
 10 36  1  0
 11 37  1  0
 12 38  1  0
 12 39  1  0
 13 40  1  0
 14 41  1  0
 14 42  1  0
 14 43  1  0
 15 44  1  0
 16 45  1  0
 16 46  1  0
 17 47  1  0
 18 48  1  0
 19 49  1  0
 19 50  1  0
 20 51  1  0
 21 52  1  0
M  END
$$$$
