
     RDKit          2D

 54 56  0  0  0  0  0  0  0  0999 V2000
   -9.1038   -2.8427    0.0000 C   0  0  0  0  0  0  0  0  0  0  0  0
   -8.5908   -1.4332    0.0000 C   0  0  0  0  0  0  0  0  0  0  0  0
   -8.0777   -0.0236    0.0000 C   0  0  0  0  0  0  0  0  0  0  0  0
   -7.5647    1.3859    0.0000 C   0  0  0  0  0  0  0  0  0  0  0  0
   -6.6682   -0.5367    0.0000 C   0  0  0  0  0  0  0  0  0  0  0  0
   -5.2587   -1.0497    0.0000 O   0  0  0  0  0  0  0  0  0  0  0  0
   -4.1096   -0.0855    0.0000 C   0  0  0  0  0  0  0  0  0  0  0  0
   -5.2587    0.8787    0.0000 C   0  0  0  0  0  0  0  0  0  0  0  0
   -3.3596   -1.3846    0.0000 C   0  0  0  0  0  0  0  0  0  0  0  0
   -1.8596   -1.2135    0.0000 C   0  0  0  0  0  0  0  0  0  0  0  0
   -2.7413    0.0000    0.0000 C   0  0  0  0  0  0  0  0  0  0  0  0
   -1.8596    1.2135    0.0000 N   0  0  0  0  0  0  0  0  0  0  0  0
   -3.3596    1.2135    0.0000 C   0  0  0  0  0  0  0  0  0  0  0  0
   -0.4330    0.7500    0.0000 C   0  0  0  0  0  0  0  0  0  0  0  0
    0.8660    0.0000    0.0000 C   0  0  0  0  0  0  0  0  0  0  0  0
    1.8302    1.1491    0.0000 C   0  0  0  0  0  0  0  0  0  0  0  0
    2.7944    2.2981    0.0000 C   0  0  0  0  0  0  0  0  0  0  0  0
    3.7586    3.4472    0.0000 S   0  0  0  0  0  0  0  0  0  0  0  0
    1.8302   -1.1491    0.0000 O   0  0  0  0  0  0  0  0  0  0  0  0
    1.3172   -2.5586    0.0000 C   0  0  0  0  0  0  0  0  0  0  0  0
    2.2814   -3.7077    0.0000 O   0  0  0  0  0  0  0  0  0  0  0  0
   -0.4330   -0.7500    0.0000 C   0  0  0  0  0  0  0  0  0  0  0  0
    0.1771   -2.1203    0.0000 C   0  0  0  0  0  0  0  0  0  0  0  0
   -9.6168   -4.2523    0.0000 H   0  0  0  0  0  0  0  0  0  0  0  0
  -10.5133   -2.3297    0.0000 H   0  0  0  0  0  0  0  0  0  0  0  0
   -7.6943   -3.3557    0.0000 H   0  0  0  0  0  0  0  0  0  0  0  0
   -7.8016   -1.8353    0.0000 H   0  0  0  0  0  0  0  0  0  0  0  0
  -10.0003   -0.9201    0.0000 H   0  0  0  0  0  0  0  0  0  0  0  0
   -9.4873    0.4894    0.0000 H   0  0  0  0  0  0  0  0  0  0  0  0
   -7.0517    2.7954    0.0000 H   0  0  0  0  0  0  0  0  0  0  0  0
   -8.9743    1.8989    0.0000 H   0  0  0  0  0  0  0  0  0  0  0  0
   -6.7880    1.2066    0.0000 H   0  0  0  0  0  0  0  0  0  0  0  0
   -6.2661    0.2525    0.0000 H   0  0  0  0  0  0  0  0  0  0  0  0
   -6.8674   -1.3997    0.0000 H   0  0  0  0  0  0  0  0  0  0  0  0
   -6.1894    1.6597    0.0000 H   0  0  0  0  0  0  0  0  0  0  0  0
   -6.4722   -0.0029    0.0000 H   0  0  0  0  0  0  0  0  0  0  0  0
   -4.4417    2.1367    0.0000 H   0  0  0  0  0  0  0  0  0  0  0  0
   -4.7691   -1.8976    0.0000 H   0  0  0  0  0  0  0  0  0  0  0  0
   -3.2811   -2.8825    0.0000 H   0  0  0  0  0  0  0  0  0  0  0  0
   -2.1458   -2.6860    0.0000 H   0  0  0  0  0  0  0  0  0  0  0  0
   -4.0657   -0.7041    0.0000 H   0  0  0  0  0  0  0  0  0  0  0  0
   -4.0657    0.7041    0.0000 H   0  0  0  0  0  0  0  0  0  0  0  0
   -3.0991    2.6907    0.0000 H   0  0  0  0  0  0  0  0  0  0  0  0
   -4.6961    1.8945    0.0000 H   0  0  0  0  0  0  0  0  0  0  0  0
    0.0055    2.1845    0.0000 H   0  0  0  0  0  0  0  0  0  0  0  0
    2.9793    0.1849    0.0000 H   0  0  0  0  0  0  0  0  0  0  0  0
    0.8072    2.2461    0.0000 H   0  0  0  0  0  0  0  0  0  0  0  0
    3.9435    1.3340    0.0000 H   0  0  0  0  0  0  0  0  0  0  0  0
    1.6453    3.2623    0.0000 H   0  0  0  0  0  0  0  0  0  0  0  0
    3.2455    4.8567    0.0000 H   0  0  0  0  0  0  0  0  0  0  0  0
   -0.0531   -3.1688    0.0000 H   0  0  0  0  0  0  0  0  0  0  0  0
    0.7872   -3.4906    0.0000 H   0  0  0  0  0  0  0  0  0  0  0  0
    1.6543   -1.8599    0.0000 H   0  0  0  0  0  0  0  0  0  0  0  0
   -1.1932   -2.7304    0.0000 H   0  0  0  0  0  0  0  0  0  0  0  0
  1  2  1  0
  2  3  1  0
  3  4  1  0
  3  5  1  0
  5  6  1  0
  6  7  1  0
  7  8  1  0
  7  9  1  0
  9 10  1  0
 10 11  1  0
 11 12  1  0
 12 13  1  0
 12 14  1  0
 14 15  1  0
 15 16  1  0
 16 17  1  0
 17 18  1  0
 15 19  1  0
 19 20  1  0
 20 21  2  0
 15 22  1  0
 22 23  1  0
 13  7  1  0
 22 14  1  0
 22 10  1  0
  1 24  1  0
  1 25  1  0
  1 26  1  0
  2 27  1  0
  2 28  1  0
  3 29  1  0
  4 30  1  0
  4 31  1  0
  4 32  1  0
  5 33  1  0
  5 34  1  0
  8 35  1  0
  8 36  1  0
  8 37  1  0
  9 38  1  0
  9 39  1  0
 10 40  1  0
 11 41  1  0
 11 42  1  0
 13 43  1  0
 13 44  1  0
 14 45  1  0
 16 46  1  0
 16 47  1  0
 17 48  1  0
 17 49  1  0
 18 50  1  0
 20 51  1  0
 23 52  1  0
 23 53  1  0
 23 54  1  0
M  END
$$$$
