
     RDKit          2D

 73 81  0  0  0  0  0  0  0  0999 V2000
  -25.3364   -1.1676    0.0000 O   0  0  0  0  0  0  0  0  0  0  0  0
  -23.9269   -0.6546    0.0000 C   0  0  0  0  0  0  0  0  0  0  0  0
  -22.5173   -0.1416    0.0000 C   0  0  0  0  0  0  0  0  0  0  0  0
  -21.1078    0.3715    0.0000 C   0  0  0  0  0  0  0  0  0  0  0  0
  -19.6982    0.8845    0.0000 C   0  0  0  0  0  0  0  0  0  0  0  0
  -18.2887    1.3975    0.0000 C   0  0  0  0  0  0  0  0  0  0  0  0
  -18.5492    2.8747    0.0000 O   0  0  0  0  0  0  0  0  0  0  0  0
  -17.1396    2.3617    0.0000 C   0  0  0  0  0  0  0  0  0  0  0  0
  -15.9906    1.3975    0.0000 C   0  0  0  0  0  0  0  0  0  0  0  0
  -14.8415    0.4333    0.0000 C   0  0  0  0  0  0  0  0  0  0  0  0
  -13.6924   -0.5308    0.0000 N   0  0  0  0  0  0  0  0  0  0  0  0
  -12.2829   -0.0178    0.0000 C   0  0  0  0  0  0  0  0  0  0  0  0
  -10.8734    0.4952    0.0000 C   0  0  0  0  0  0  0  0  0  0  0  0
   -9.4638    1.0082    0.0000 C   0  0  0  0  0  0  0  0  0  0  0  0
   -7.9638    1.0082    0.0000 C   0  0  0  0  0  0  0  0  0  0  0  0
   -8.7138   -0.2908    0.0000 C   0  0  0  0  0  0  0  0  0  0  0  0
   -9.7745   -1.3515    0.0000 C   0  0  0  0  0  0  0  0  0  0  0  0
   -8.7138   -2.4121    0.0000 C   0  0  0  0  0  0  0  0  0  0  0  0
   -7.6532   -1.3515    0.0000 C   0  0  0  0  0  0  0  0  0  0  0  0
   -6.3541   -0.6015    0.0000 C   0  0  0  0  0  0  0  0  0  0  0  0
   -5.1814    0.3338    0.0000 C   0  0  0  0  0  0  0  0  0  0  0  0
   -3.7190    0.0000    0.0000 C   0  0  0  0  0  0  0  0  0  0  0  0
   -4.8917   -0.9352    0.0000 O   0  0  0  0  0  0  0  0  0  0  0  0
   -3.0682    1.3515    0.0000 C   0  0  0  0  0  0  0  0  0  0  0  0
   -1.6058    1.6852    0.0000 C   0  0  0  0  0  0  0  0  0  0  0  0
   -0.4330    0.7500    0.0000 C   0  0  0  0  0  0  0  0  0  0  0  0
    0.8660    0.0000    0.0000 O   0  0  0  0  0  0  0  0  0  0  0  0
   -0.4330   -0.7500    0.0000 C   0  0  0  0  0  0  0  0  0  0  0  0
   -1.6058   -1.6852    0.0000 C   0  0  0  0  0  0  0  0  0  0  0  0
   -3.7190   -2.7029    0.0000 C   0  0  0  0  0  0  0  0  0  0  0  0
   -5.1814   -3.0367    0.0000 C   0  0  0  0  0  0  0  0  0  0  0  0
   -6.3541   -2.1015    0.0000 N   0  0  0  0  0  0  0  0  0  0  0  0
   -3.0682   -1.3515    0.0000 C   0  0  0  0  0  0  0  0  0  0  0  0
  -26.4855   -0.2035    0.0000 H   0  0  0  0  0  0  0  0  0  0  0  0
  -23.4138   -2.0641    0.0000 H   0  0  0  0  0  0  0  0  0  0  0  0
  -24.4399    0.7549    0.0000 H   0  0  0  0  0  0  0  0  0  0  0  0
  -22.0043   -1.5511    0.0000 H   0  0  0  0  0  0  0  0  0  0  0  0
  -23.0303    1.2680    0.0000 H   0  0  0  0  0  0  0  0  0  0  0  0
  -21.6208    1.7810    0.0000 H   0  0  0  0  0  0  0  0  0  0  0  0
  -20.5947   -1.0381    0.0000 H   0  0  0  0  0  0  0  0  0  0  0  0
  -19.1852   -0.5251    0.0000 H   0  0  0  0  0  0  0  0  0  0  0  0
  -20.2113    2.2940    0.0000 H   0  0  0  0  0  0  0  0  0  0  0  0
  -17.7612    0.1548    0.0000 H   0  0  0  0  0  0  0  0  0  0  0  0
  -16.3896    3.6607    0.0000 H   0  0  0  0  0  0  0  0  0  0  0  0
  -16.7258    0.2653    0.0000 H   0  0  0  0  0  0  0  0  0  0  0  0
  -15.0264    2.5466    0.0000 H   0  0  0  0  0  0  0  0  0  0  0  0
  -13.8773    1.5824    0.0000 H   0  0  0  0  0  0  0  0  0  0  0  0
  -15.8057   -0.7157    0.0000 H   0  0  0  0  0  0  0  0  0  0  0  0
  -13.9529   -2.0081    0.0000 H   0  0  0  0  0  0  0  0  0  0  0  0
  -12.7959    1.3917    0.0000 H   0  0  0  0  0  0  0  0  0  0  0  0
  -11.7699   -1.4274    0.0000 H   0  0  0  0  0  0  0  0  0  0  0  0
  -10.8873   -0.3018    0.0000 H   0  0  0  0  0  0  0  0  0  0  0  0
  -11.3864    1.9048    0.0000 H   0  0  0  0  0  0  0  0  0  0  0  0
   -9.7243    2.4855    0.0000 H   0  0  0  0  0  0  0  0  0  0  0  0
   -7.7033    2.4855    0.0000 H   0  0  0  0  0  0  0  0  0  0  0  0
   -6.4720    0.8515    0.0000 H   0  0  0  0  0  0  0  0  0  0  0  0
  -10.8351   -2.4121    0.0000 H   0  0  0  0  0  0  0  0  0  0  0  0
  -10.5027   -1.0273    0.0000 H   0  0  0  0  0  0  0  0  0  0  0  0
   -7.6532   -3.4728    0.0000 H   0  0  0  0  0  0  0  0  0  0  0  0
   -9.7745   -3.4728    0.0000 H   0  0  0  0  0  0  0  0  0  0  0  0
   -7.0417    0.7317    0.0000 H   0  0  0  0  0  0  0  0  0  0  0  0
   -6.2314    1.4050    0.0000 H   0  0  0  0  0  0  0  0  0  0  0  0
   -4.7001    1.7545    0.0000 H   0  0  0  0  0  0  0  0  0  0  0  0
   -4.6682   -2.4185    0.0000 H   0  0  0  0  0  0  0  0  0  0  0  0
   -4.4790    1.8610    0.0000 H   0  0  0  0  0  0  0  0  0  0  0  0
   -3.2510    2.8403    0.0000 H   0  0  0  0  0  0  0  0  0  0  0  0
   -2.0870    3.1059    0.0000 H   0  0  0  0  0  0  0  0  0  0  0  0
   -0.4330    2.6205    0.0000 H   0  0  0  0  0  0  0  0  0  0  0  0
    0.4120    1.9894    0.0000 H   0  0  0  0  0  0  0  0  0  0  0  0
    0.4120   -1.9894    0.0000 H   0  0  0  0  0  0  0  0  0  0  0  0
   -2.7837   -3.8757    0.0000 H   0  0  0  0  0  0  0  0  0  0  0  0
   -5.5152   -4.4991    0.0000 H   0  0  0  0  0  0  0  0  0  0  0  0
   -2.4173   -2.7029    0.0000 H   0  0  0  0  0  0  0  0  0  0  0  0
  1  2  1  0
  2  3  1  0
  3  4  1  0
  4  5  1  0
  5  6  1  0
  6  7  1  0
  7  8  1  0
  8  9  1  0
  9 10  1  0
 10 11  1  0
 11 12  1  0
 12 13  1  0
 13 14  1  0
 14 15  1  0
 16 15  1  6
 16 17  1  0
 17 18  1  0
 19 18  1  6
 19 20  1  0
 20 21  1  0
 21 22  1  0
 22 23  1  6
 22 24  1  0
 24 25  1  0
 25 26  1  0
 26 27  1  0
 27 28  1  0
 29 28  1  1
 29 30  1  0
 30 31  1  0
 31 32  1  0
 30 33  1  0
  8  6  1  0
 16 14  1  0
 32 19  1  0
 19 16  1  0
 32 20  1  0
 33 22  1  0
 28 26  1  0
 31 29  1  0
 33 29  1  0
  1 34  1  0
  2 35  1  0
  2 36  1  0
  3 37  1  0
  3 38  1  0
  4 39  1  0
  4 40  1  0
  5 41  1  0
  5 42  1  0
  6 43  1  6
  8 44  1  6
  9 45  1  0
  9 46  1  0
 10 47  1  0
 10 48  1  0
 11 49  1  0
 12 50  1  0
 12 51  1  0
 13 52  1  0
 13 53  1  0
 14 54  1  6
 15 55  1  0
 15 56  1  0
 17 57  1  0
 17 58  1  0
 18 59  1  0
 18 60  1  0
 20 61  1  6
 21 62  1  0
 21 63  1  0
 23 64  1  0
 24 65  1  0
 24 66  1  0
 25 67  1  0
 25 68  1  0
 26 69  1  1
 28 70  1  1
 30 71  1  6
 31 72  1  1
 33 73  1  6
M  END
$$$$
