
     RDKit          2D

 25 26  0  0  0  0  0  0  0  0999 V2000
    3.3500   -2.3216    0.0000 N   0  0  0  0  0  0  0  0  0  0  0  0
    2.1213   -3.1820    0.0000 C   0  0  0  0  0  0  0  0  0  0  0  0
    1.0607   -2.1213    0.0000 C   0  0  0  0  0  0  0  0  0  0  0  0
   -0.0000   -1.0607    0.0000 C   0  0  0  0  0  0  0  0  0  0  0  0
    1.0607    0.0000    0.0000 C   0  0  0  0  0  0  0  0  0  0  0  0
    0.0000    1.0607    0.0000 C   0  0  0  0  0  0  0  0  0  0  0  0
   -1.0607    0.0000    0.0000 N   0  0  0  0  0  0  0  0  0  0  0  0
    2.7552   -4.5414    0.0000 C   0  0  0  0  0  0  0  0  0  0  0  0
    1.2610   -4.4107    0.0000 C   0  0  0  0  0  0  0  0  0  0  0  0
    0.8727   -5.8596    0.0000 O   0  0  0  0  0  0  0  0  0  0  0  0
   -0.0985   -3.7768    0.0000 O   0  0  0  0  0  0  0  0  0  0  0  0
    4.7095   -2.9555    0.0000 H   0  0  0  0  0  0  0  0  0  0  0  0
    3.2193   -0.8273    0.0000 H   0  0  0  0  0  0  0  0  0  0  0  0
    1.7586   -1.5760    0.0000 H   0  0  0  0  0  0  0  0  0  0  0  0
   -0.0966   -2.8166    0.0000 H   0  0  0  0  0  0  0  0  0  0  0  0
   -1.0607   -2.1213    0.0000 H   0  0  0  0  0  0  0  0  0  0  0  0
    2.1213    1.0607    0.0000 H   0  0  0  0  0  0  0  0  0  0  0  0
    1.7586   -0.5453    0.0000 H   0  0  0  0  0  0  0  0  0  0  0  0
   -1.0607    2.1213    0.0000 H   0  0  0  0  0  0  0  0  0  0  0  0
    1.0607    2.1213    0.0000 H   0  0  0  0  0  0  0  0  0  0  0  0
   -2.5607    0.0000    0.0000 H   0  0  0  0  0  0  0  0  0  0  0  0
    4.2041   -4.1532    0.0000 H   0  0  0  0  0  0  0  0  0  0  0  0
    2.8860   -6.0357    0.0000 H   0  0  0  0  0  0  0  0  0  0  0  0
   -0.5762   -6.2478    0.0000 H   0  0  0  0  0  0  0  0  0  0  0  0
   -1.3272   -4.6371    0.0000 H   0  0  0  0  0  0  0  0  0  0  0  0
  1  2  1  0
  2  3  1  0
  3  4  1  0
  4  5  1  0
  5  6  1  0
  6  7  1  0
  2  8  1  0
  8  9  1  0
  9 10  1  0
  9 11  1  0
  9  2  1  0
  7  4  1  0
  1 12  1  0
  1 13  1  0
  3 14  1  0
  3 15  1  0
  4 16  1  0
  5 17  1  0
  5 18  1  0
  6 19  1  0
  6 20  1  0
  7 21  1  0
  8 22  1  0
  8 23  1  0
 10 24  1  0
 11 25  1  0
M  END
$$$$
