
     RDKit          2D

 43 44  0  0  0  0  0  0  0  0999 V2000
   -3.4442    4.2502    0.0000 C   0  0  0  0  0  0  0  0  0  0  0  0
   -2.1741    3.4521    0.0000 C   0  0  0  0  0  0  0  0  0  0  0  0
   -0.9508    4.3202    0.0000 C   0  0  0  0  0  0  0  0  0  0  0  0
    0.5280    4.0689    0.0000 C   0  0  0  0  0  0  0  0  0  0  0  0
    0.3880    5.5623    0.0000 C   0  0  0  0  0  0  0  0  0  0  0  0
    0.2479    7.0558    0.0000 C   0  0  0  0  0  0  0  0  0  0  0  0
    1.3960    2.8456    0.0000 C   0  0  0  0  0  0  0  0  0  0  0  0
    1.0777    1.3515    0.0000 C   0  0  0  0  0  0  0  0  0  0  0  0
    1.7286    0.0000    0.0000 C   0  0  0  0  0  0  0  0  0  0  0  0
    1.0777   -1.3515    0.0000 C   0  0  0  0  0  0  0  0  0  0  0  0
   -0.3846   -1.6852    0.0000 C   0  0  0  0  0  0  0  0  0  0  0  0
   -1.5574   -0.7500    0.0000 C   0  0  0  0  0  0  0  0  0  0  0  0
   -1.5574    0.7500    0.0000 C   0  0  0  0  0  0  0  0  0  0  0  0
   -2.9088    1.4008    0.0000 C   0  0  0  0  0  0  0  0  0  0  0  0
   -4.2603    2.0517    0.0000 O   0  0  0  0  0  0  0  0  0  0  0  0
   -5.4997    1.2067    0.0000 F   0  0  0  0  0  0  0  0  0  0  0  0
   -2.4254    1.9733    0.0000 C   0  0  0  0  0  0  0  0  0  0  0  0
   -0.3846    1.6852    0.0000 O   0  0  0  0  0  0  0  0  0  0  0  0
   -3.3881    5.7491    0.0000 H   0  0  0  0  0  0  0  0  0  0  0  0
   -4.7704    3.5493    0.0000 H   0  0  0  0  0  0  0  0  0  0  0  0
   -2.1059    5.2772    0.0000 H   0  0  0  0  0  0  0  0  0  0  0  0
   -0.9002    5.1157    0.0000 H   0  0  0  0  0  0  0  0  0  0  0  0
    1.8602    4.7582    0.0000 H   0  0  0  0  0  0  0  0  0  0  0  0
    1.8814    5.7024    0.0000 H   0  0  0  0  0  0  0  0  0  0  0  0
   -0.4089    5.5852    0.0000 H   0  0  0  0  0  0  0  0  0  0  0  0
    0.1079    8.5492    0.0000 H   0  0  0  0  0  0  0  0  0  0  0  0
    1.7414    7.1958    0.0000 H   0  0  0  0  0  0  0  0  0  0  0  0
   -1.2455    6.9157    0.0000 H   0  0  0  0  0  0  0  0  0  0  0  0
    2.4867    3.8753    0.0000 H   0  0  0  0  0  0  0  0  0  0  0  0
    2.8255    2.3910    0.0000 H   0  0  0  0  0  0  0  0  0  0  0  0
    1.8631    2.6295    0.0000 H   0  0  0  0  0  0  0  0  0  0  0  0
    2.9013    0.9352    0.0000 H   0  0  0  0  0  0  0  0  0  0  0  0
    3.0066   -0.7853    0.0000 H   0  0  0  0  0  0  0  0  0  0  0  0
    2.4885   -1.8610    0.0000 H   0  0  0  0  0  0  0  0  0  0  0  0
    1.2606   -2.8403    0.0000 H   0  0  0  0  0  0  0  0  0  0  0  0
    0.0966   -3.1059    0.0000 H   0  0  0  0  0  0  0  0  0  0  0  0
   -1.4346   -2.7564    0.0000 H   0  0  0  0  0  0  0  0  0  0  0  0
   -2.3681   -2.0120    0.0000 H   0  0  0  0  0  0  0  0  0  0  0  0
   -3.0496   -0.5970    0.0000 H   0  0  0  0  0  0  0  0  0  0  0  0
   -3.5597    0.0494    0.0000 H   0  0  0  0  0  0  0  0  0  0  0  0
   -2.9688    2.8996    0.0000 H   0  0  0  0  0  0  0  0  0  0  0  0
   -3.7328    1.2381    0.0000 H   0  0  0  0  0  0  0  0  0  0  0  0
   -3.5969    2.9101    0.0000 H   0  0  0  0  0  0  0  0  0  0  0  0
  1  2  2  3
  2  3  1  0
  3  4  1  0
  4  5  1  0
  5  6  1  0
  4  7  1  0
  7  8  1  0
  8  9  1  0
  9 10  1  0
 10 11  1  0
 11 12  1  0
 12 13  1  0
 13 14  1  6
 14 15  1  0
 15 16  1  0
 13 17  1  0
 13 18  1  0
 17  2  1  0
 18  8  1  0
  1 19  1  0
  1 20  1  0
  3 21  1  0
  3 22  1  0
  4 23  1  1
  5 24  1  0
  5 25  1  0
  6 26  1  0
  6 27  1  0
  6 28  1  0
  7 29  1  0
  7 30  1  0
  8 31  1  6
  9 32  1  0
  9 33  1  0
 10 34  1  0
 10 35  1  0
 11 36  1  0
 11 37  1  0
 12 38  1  0
 12 39  1  0
 14 40  1  0
 14 41  1  0
 17 42  1  0
 17 43  1  0
M  END
$$$$
