
     RDKit          3D

 18 24  0  0  0  0  0  0  0  0999 V2000
   25.7754  -24.4423  -19.6081 C   0  0  0  0  0  0  0  0  0  0  0  0
   27.0123  -23.2854  -21.5131 C   0  0  0  0  0  0  0  0  0  0  0  0
   26.6404  -26.7136  -19.9693 C   0  0  0  0  0  0  0  0  0  0  0  0
   25.6909  -25.8836  -19.1234 C   0  0  0  0  0  0  0  0  0  0  0  0
   25.1360  -26.8923  -20.1110 C   0  0  0  0  0  0  0  0  0  0  0  0
   27.0870  -24.3479  -20.3861 C   0  0  0  0  0  0  0  0  0  0  0  0
   27.3268  -25.7532  -20.9339 C   0  0  0  0  0  0  0  0  0  0  0  0
   28.1968  -23.1600  -22.5116 C   0  0  0  0  0  0  0  0  0  0  0  0
   28.0383  -21.7008  -23.0264 C   0  0  0  0  0  0  0  0  0  0  0  0
   26.6785  -21.1373  -23.5181 C   0  0  0  0  0  0  0  0  0  0  0  0
   26.9310  -19.8811  -24.4006 C   0  0  0  0  0  0  0  0  0  0  0  0
   26.2183  -18.5937  -23.9925 C   0  0  0  0  0  0  0  0  0  0  0  0
   29.4016  -22.9555  -21.5657 C   0  0  0  0  0  0  0  0  0  0  0  0
   25.7034  -19.3900  -25.1901 C   0  0  0  0  0  0  0  0  0  0  0  0
   25.8787  -22.1325  -24.3354 C   0  0  0  0  0  0  0  0  0  0  0  0
   28.0767  -22.1576  -21.5367 C   0  0  0  0  0  0  0  0  0  0  0  0
   24.7988  -21.7088  -25.0078 C   0  0  0  0  0  0  0  0  0  0  0  0
   24.4347  -20.2476  -24.9840 C   0  0  0  0  0  0  0  0  0  0  0  0
  4  1  1  0
  4  3  1  0
  5  3  1  0
  5  4  1  0
  6  1  1  0
  6  2  1  0
  7  3  1  0
  7  6  1  0
  8  2  1  0
  9  8  1  0
 10  9  1  0
 11 10  1  0
 12 11  1  0
 13  8  1  0
 14 11  1  0
 14 12  1  0
 15 10  1  0
 16  2  1  0
 16  8  1  0
 16  9  1  0
 16 13  1  0
 17 15  2  0
 18 14  1  0
 18 17  1  0
M  END
$$$$
