
     RDKit          2D

 72 77  0  0  0  0  0  0  0  0999 V2000
   -8.6833   -1.2657    0.0000 C   0  0  0  0  0  0  0  0  0  0  0  0
   -7.4112   -0.4708    0.0000 C   0  0  0  0  0  0  0  0  0  0  0  0
   -6.1392    0.3241    0.0000 Si  0  0  0  0  0  4  0  0  0  0  0  0
   -6.7011    1.7149    0.0000 Si  0  0  0  0  0  4  0  0  0  0  0  0
   -5.9213    1.8806    0.0000 F   0  0  0  0  0  0  0  0  0  0  0  0
   -7.9731    0.9200    0.0000 C   0  0  0  0  0  0  0  0  0  0  0  0
   -8.8966   -0.2620    0.0000 C   0  0  0  0  0  0  0  0  0  0  0  0
   -9.2976    1.6242    0.0000 C   0  0  0  0  0  0  0  0  0  0  0  0
   -9.3499    3.1233    0.0000 O   0  0  0  0  0  0  0  0  0  0  0  0
   -8.0778    3.9181    0.0000 C   0  0  0  0  0  0  0  0  0  0  0  0
   -6.7534    3.2139    0.0000 C   0  0  0  0  0  0  0  0  0  0  0  0
   -5.2680    3.0052    0.0000 C   0  0  0  0  0  0  0  0  0  0  0  0
   -3.7826    2.7964    0.0000 C   0  0  0  0  0  0  0  0  0  0  0  0
   -5.0593    4.4906    0.0000 C   0  0  0  0  0  0  0  0  0  0  0  0
   -5.4768    1.5198    0.0000 C   0  0  0  0  0  0  0  0  0  0  0  0
   -5.1355   -0.7906    0.0000 C   0  0  0  0  0  0  0  0  0  0  0  0
   -4.6719   -2.2172    0.0000 C   0  0  0  0  0  0  0  0  0  0  0  0
   -3.4584   -3.0989    0.0000 C   0  0  0  0  0  0  0  0  0  0  0  0
   -1.9584   -3.0989    0.0000 C   0  0  0  0  0  0  0  0  0  0  0  0
   -0.7449   -2.2172    0.0000 C   0  0  0  0  0  0  0  0  0  0  0  0
   -1.8596   -1.2135    0.0000 C   0  0  0  0  0  0  0  0  0  0  0  0
   -2.7413    0.0000    0.0000 C   0  0  0  0  0  0  0  0  0  0  0  0
   -1.8596    1.2135    0.0000 C   0  0  0  0  0  0  0  0  0  0  0  0
   -0.4330    0.7500    0.0000 C   0  0  0  0  0  0  0  0  0  0  0  0
    0.8660    0.0000    0.0000 C   0  0  0  0  0  0  0  0  0  0  0  0
    1.8302    1.1491    0.0000 C   0  0  0  0  0  0  0  0  0  0  0  0
   -0.4330   -0.7500    0.0000 C   0  0  0  0  0  0  0  0  0  0  0  0
   -3.4584    1.5176    0.0000 C   0  0  0  0  0  0  0  0  0  0  0  0
   -4.4225    2.6667    0.0000 F   0  0  0  0  0  0  0  0  0  0  0  0
   -4.6719    0.6359    0.0000 C   0  0  0  0  0  0  0  0  0  0  0  0
   -9.8490   -2.2097    0.0000 H   0  0  0  0  0  0  0  0  0  0  0  0
   -7.8884   -2.5377    0.0000 H   0  0  0  0  0  0  0  0  0  0  0  0
   -9.9824   -0.5158    0.0000 H   0  0  0  0  0  0  0  0  0  0  0  0
   -6.9478   -1.8974    0.0000 H   0  0  0  0  0  0  0  0  0  0  0  0
   -8.4903    0.5711    0.0000 H   0  0  0  0  0  0  0  0  0  0  0  0
   -7.2690   -0.4045    0.0000 H   0  0  0  0  0  0  0  0  0  0  0  0
   -9.9573   -1.3227    0.0000 H   0  0  0  0  0  0  0  0  0  0  0  0
  -10.0786    0.6615    0.0000 H   0  0  0  0  0  0  0  0  0  0  0  0
   -7.9732   -1.4441    0.0000 H   0  0  0  0  0  0  0  0  0  0  0  0
  -10.7830    1.8329    0.0000 H   0  0  0  0  0  0  0  0  0  0  0  0
  -10.0925    0.3522    0.0000 H   0  0  0  0  0  0  0  0  0  0  0  0
   -7.3053    5.2039    0.0000 H   0  0  0  0  0  0  0  0  0  0  0  0
   -9.0815    5.0329    0.0000 H   0  0  0  0  0  0  0  0  0  0  0  0
   -6.4672    4.6864    0.0000 H   0  0  0  0  0  0  0  0  0  0  0  0
   -2.2908    2.9533    0.0000 H   0  0  0  0  0  0  0  0  0  0  0  0
   -3.3943    4.2453    0.0000 H   0  0  0  0  0  0  0  0  0  0  0  0
   -3.6257    1.3046    0.0000 H   0  0  0  0  0  0  0  0  0  0  0  0
   -4.8505    5.9760    0.0000 H   0  0  0  0  0  0  0  0  0  0  0  0
   -3.5595    4.4644    0.0000 H   0  0  0  0  0  0  0  0  0  0  0  0
   -6.4500    5.0526    0.0000 H   0  0  0  0  0  0  0  0  0  0  0  0
   -5.3199    0.0280    0.0000 H   0  0  0  0  0  0  0  0  0  0  0  0
   -6.9685    1.3629    0.0000 H   0  0  0  0  0  0  0  0  0  0  0  0
   -3.9914    1.3110    0.0000 H   0  0  0  0  0  0  0  0  0  0  0  0
   -6.4345   -1.5406    0.0000 H   0  0  0  0  0  0  0  0  0  0  0  0
   -5.3059   -3.5767    0.0000 H   0  0  0  0  0  0  0  0  0  0  0  0
   -6.1274   -2.5802    0.0000 H   0  0  0  0  0  0  0  0  0  0  0  0
   -3.1722   -4.5713    0.0000 H   0  0  0  0  0  0  0  0  0  0  0  0
   -4.5554   -4.1219    0.0000 H   0  0  0  0  0  0  0  0  0  0  0  0
   -0.8614   -4.1219    0.0000 H   0  0  0  0  0  0  0  0  0  0  0  0
   -2.2446   -4.5713    0.0000 H   0  0  0  0  0  0  0  0  0  0  0  0
   -0.1109   -3.5767    0.0000 H   0  0  0  0  0  0  0  0  0  0  0  0
   -2.9743   -2.2172    0.0000 H   0  0  0  0  0  0  0  0  0  0  0  0
   -3.8560   -1.0037    0.0000 H   0  0  0  0  0  0  0  0  0  0  0  0
   -4.1968    0.3627    0.0000 H   0  0  0  0  0  0  0  0  0  0  0  0
   -1.9642    2.7099    0.0000 H   0  0  0  0  0  0  0  0  0  0  0  0
    0.0055    2.1845    0.0000 H   0  0  0  0  0  0  0  0  0  0  0  0
    1.8302   -1.1491    0.0000 H   0  0  0  0  0  0  0  0  0  0  0  0
    2.7944    2.2981    0.0000 H   0  0  0  0  0  0  0  0  0  0  0  0
    2.9793    0.1849    0.0000 H   0  0  0  0  0  0  0  0  0  0  0  0
    0.8072    2.2461    0.0000 H   0  0  0  0  0  0  0  0  0  0  0  0
   -2.9949    2.9442    0.0000 H   0  0  0  0  0  0  0  0  0  0  0  0
   -5.5955    1.8179    0.0000 H   0  0  0  0  0  0  0  0  0  0  0  0
  1  2  1  0
  3  2  1  6
  3  4  1  0
  4  5  1  1
  4  6  1  0
  6  7  1  0
  6  8  1  0
  8  9  1  0
  9 10  1  0
 10 11  1  0
 11 12  1  0
 12 13  1  0
 12 14  1  0
 12 15  1  0
  3 16  1  0
 16 17  1  0
 17 18  1  0
 18 19  1  0
 19 20  1  0
 20 21  1  0
 21 22  1  0
 22 23  1  0
 23 24  1  0
 24 25  1  0
 25 26  1  0
 27 25  1  1
 23 28  1  0
 28 29  1  0
 28 30  1  0
 30  3  1  0
 11  4  1  0
 30 16  1  0
 27 20  1  0
 27 21  1  0
 27 24  1  0
  1 31  1  0
  1 32  1  0
  1 33  1  0
  2 34  1  0
  2 35  1  0
  6 36  1  6
  7 37  1  0
  7 38  1  0
  7 39  1  0
  8 40  1  0
  8 41  1  0
 10 42  1  0
 10 43  1  0
 11 44  1  1
 13 45  1  0
 13 46  1  0
 13 47  1  0
 14 48  1  0
 14 49  1  0
 14 50  1  0
 15 51  1  0
 15 52  1  0
 15 53  1  0
 16 54  1  6
 17 55  1  0
 17 56  1  0
 18 57  1  0
 18 58  1  0
 19 59  1  0
 19 60  1  0
 20 61  1  1
 21 62  1  1
 22 63  1  0
 22 64  1  0
 23 65  1  1
 24 66  1  1
 25 67  1  6
 26 68  1  0
 26 69  1  0
 26 70  1  0
 28 71  1  1
 30 72  1  1
M  END
$$$$
