
     RDKit          2D

 54 55  0  0  0  0  0  0  0  0999 V2000
  -16.1490  -12.4635    0.0000 C   0  0  0  0  0  0  0  0  0  0  0  0
  -14.8500  -11.7135    0.0000 C   0  0  0  0  0  0  0  0  0  0  0  0
  -13.5509  -10.9635    0.0000 C   0  0  0  0  0  0  0  0  0  0  0  0
  -12.2519  -10.2135    0.0000 C   0  0  0  0  0  0  0  0  0  0  0  0
  -12.2519   -8.7135    0.0000 C   0  0  0  0  0  0  0  0  0  0  0  0
  -10.9529   -7.9635    0.0000 C   0  0  0  0  0  0  0  0  0  0  0  0
   -9.6538   -7.2135    0.0000 C   0  0  0  0  0  0  0  0  0  0  0  0
   -8.3548   -6.4635    0.0000 C   0  0  0  0  0  0  0  0  0  0  0  0
   -7.0557   -5.7135    0.0000 C   0  0  0  0  0  0  0  0  0  0  0  0
   -5.7567   -4.9635    0.0000 C   0  0  0  0  0  0  0  0  0  0  0  0
   -4.4577   -4.2135    0.0000 C   0  0  0  0  0  0  0  0  0  0  0  0
   -3.1586   -3.4635    0.0000 O   0  0  0  0  0  0  0  0  0  0  0  0
   -3.1586   -1.9635    0.0000 O   0  0  0  0  0  0  0  0  0  0  0  0
   -1.8596   -1.2135    0.0000 C   0  0  0  0  0  0  0  0  0  0  0  0
   -2.7413    0.0000    0.0000 C   0  0  0  0  0  0  0  0  0  0  0  0
   -3.8560    1.0037    0.0000 O   0  0  0  0  0  0  0  0  0  0  0  0
   -1.8596    1.2135    0.0000 C   0  0  0  0  0  0  0  0  0  0  0  0
   -0.4330    0.7500    0.0000 C   0  0  0  0  0  0  0  0  0  0  0  0
    0.8660    0.0000    0.0000 C   0  0  0  0  0  0  0  0  0  0  0  0
   -0.4330   -0.7500    0.0000 C   0  0  0  0  0  0  0  0  0  0  0  0
    0.1771   -2.1203    0.0000 O   0  0  0  0  0  0  0  0  0  0  0  0
   -0.7046   -3.3338    0.0000 C   0  0  0  0  0  0  0  0  0  0  0  0
  -17.4481  -13.2135    0.0000 H   0  0  0  0  0  0  0  0  0  0  0  0
  -15.3990  -13.7626    0.0000 H   0  0  0  0  0  0  0  0  0  0  0  0
  -16.8990  -11.1645    0.0000 H   0  0  0  0  0  0  0  0  0  0  0  0
  -14.1000  -13.0126    0.0000 H   0  0  0  0  0  0  0  0  0  0  0  0
  -15.6000  -10.4145    0.0000 H   0  0  0  0  0  0  0  0  0  0  0  0
  -12.8009  -12.2626    0.0000 H   0  0  0  0  0  0  0  0  0  0  0  0
  -14.3009   -9.6645    0.0000 H   0  0  0  0  0  0  0  0  0  0  0  0
  -10.9529  -10.9635    0.0000 H   0  0  0  0  0  0  0  0  0  0  0  0
  -13.5509   -7.9635    0.0000 H   0  0  0  0  0  0  0  0  0  0  0  0
  -10.2029   -9.2626    0.0000 H   0  0  0  0  0  0  0  0  0  0  0  0
  -11.7029   -6.6645    0.0000 H   0  0  0  0  0  0  0  0  0  0  0  0
  -10.4038   -5.9145    0.0000 H   0  0  0  0  0  0  0  0  0  0  0  0
   -8.9038   -8.5126    0.0000 H   0  0  0  0  0  0  0  0  0  0  0  0
   -7.6048   -7.7626    0.0000 H   0  0  0  0  0  0  0  0  0  0  0  0
   -9.1048   -5.1645    0.0000 H   0  0  0  0  0  0  0  0  0  0  0  0
   -7.8057   -4.4145    0.0000 H   0  0  0  0  0  0  0  0  0  0  0  0
   -6.3057   -7.0126    0.0000 H   0  0  0  0  0  0  0  0  0  0  0  0
   -5.0067   -6.2626    0.0000 H   0  0  0  0  0  0  0  0  0  0  0  0
   -6.5067   -3.6645    0.0000 H   0  0  0  0  0  0  0  0  0  0  0  0
   -5.2077   -2.9145    0.0000 H   0  0  0  0  0  0  0  0  0  0  0  0
   -3.7077   -5.5126    0.0000 H   0  0  0  0  0  0  0  0  0  0  0  0
   -1.6266   -1.9759    0.0000 H   0  0  0  0  0  0  0  0  0  0  0  0
   -3.8560   -1.0037    0.0000 H   0  0  0  0  0  0  0  0  0  0  0  0
   -5.2826    0.5402    0.0000 H   0  0  0  0  0  0  0  0  0  0  0  0
   -1.2495    2.5838    0.0000 H   0  0  0  0  0  0  0  0  0  0  0  0
   -3.1586    1.9635    0.0000 H   0  0  0  0  0  0  0  0  0  0  0  0
    0.1771    2.1203    0.0000 H   0  0  0  0  0  0  0  0  0  0  0  0
    1.8302    1.1491    0.0000 H   0  0  0  0  0  0  0  0  0  0  0  0
    1.8302   -1.1491    0.0000 H   0  0  0  0  0  0  0  0  0  0  0  0
   -1.5863   -4.5474    0.0000 H   0  0  0  0  0  0  0  0  0  0  0  0
    0.5089   -4.2155    0.0000 H   0  0  0  0  0  0  0  0  0  0  0  0
   -1.4018   -2.9474    0.0000 H   0  0  0  0  0  0  0  0  0  0  0  0
  1  2  1  0
  2  3  1  0
  3  4  1  0
  4  5  2  3
  5  6  1  0
  6  7  1  0
  7  8  1  0
  8  9  1  0
  9 10  1  0
 10 11  1  0
 11 12  1  0
 12 13  1  0
 13 14  1  0
 14 15  1  0
 15 16  1  0
 15 17  1  0
 17 18  1  0
 18 19  1  0
 19 20  1  0
 20 21  1  6
 21 22  1  0
 20 14  1  0
 20 18  1  0
  1 23  1  0
  1 24  1  0
  1 25  1  0
  2 26  1  0
  2 27  1  0
  3 28  1  0
  3 29  1  0
  4 30  1  0
  5 31  1  0
  6 32  1  0
  6 33  1  0
  7 34  1  0
  7 35  1  0
  8 36  1  0
  8 37  1  0
  9 38  1  0
  9 39  1  0
 10 40  1  0
 10 41  1  0
 11 42  1  0
 11 43  1  0
 14 44  1  6
 15 45  1  6
 16 46  1  0
 17 47  1  0
 17 48  1  0
 18 49  1  6
 19 50  1  0
 19 51  1  0
 22 52  1  0
 22 53  1  0
 22 54  1  0
M  END
$$$$
