
     RDKit          2D

109113  0  0  0  0  0  0  0  0999 V2000
    1.3342   -7.9110    0.0000 C   0  0  0  0  0  0  0  0  0  0  0  0
    0.3348   -6.7924    0.0000 C   0  0  0  0  0  0  0  0  0  0  0  0
   -1.1336   -7.0986    0.0000 N   0  0  0  0  0  0  0  0  0  0  0  0
   -1.6027   -8.5234    0.0000 C   0  0  0  0  0  0  0  0  0  0  0  0
   -2.0717   -9.9482    0.0000 C   0  0  0  0  0  0  0  0  0  0  0  0
   -2.5407  -11.3730    0.0000 C   0  0  0  0  0  0  0  0  0  0  0  0
   -3.0097  -12.7978    0.0000 C   0  0  0  0  0  0  0  0  0  0  0  0
   -3.4787  -14.2226    0.0000 C   0  0  0  0  0  0  0  0  0  0  0  0
   -3.9477  -15.6474    0.0000 C   0  0  0  0  0  0  0  0  0  0  0  0
   -4.4167  -17.0722    0.0000 C   0  0  0  0  0  0  0  0  0  0  0  0
   -4.8857  -18.4970    0.0000 C   0  0  0  0  0  0  0  0  0  0  0  0
   -5.3547  -19.9218    0.0000 C   0  0  0  0  0  0  0  0  0  0  0  0
   -5.8237  -21.3466    0.0000 O   0  0  0  0  0  0  0  0  0  0  0  0
   -2.5229  -16.1164    0.0000 C   0  0  0  0  0  0  0  0  0  0  0  0
   -1.0981  -16.5854    0.0000 C   0  0  0  0  0  0  0  0  0  0  0  0
    0.3267  -17.0544    0.0000 C   0  0  0  0  0  0  0  0  0  0  0  0
    1.7515  -17.5234    0.0000 C   0  0  0  0  0  0  0  0  0  0  0  0
    3.1763  -17.9924    0.0000 C   0  0  0  0  0  0  0  0  0  0  0  0
    1.2825  -18.9482    0.0000 C   0  0  0  0  0  0  0  0  0  0  0  0
    0.8135  -20.3730    0.0000 C   0  0  0  0  0  0  0  0  0  0  0  0
    0.8038   -5.3676    0.0000 C   0  0  0  0  0  0  0  0  0  0  0  0
    2.2286   -5.8366    0.0000 C   0  0  0  0  0  0  0  0  0  0  0  0
    1.2728   -3.9428    0.0000 C   0  0  0  0  0  0  0  0  0  0  0  0
    2.6929   -3.4599    0.0000 O   0  0  0  0  0  0  0  0  0  0  0  0
   -0.6210   -4.8986    0.0000 C   0  0  0  0  0  0  0  0  0  0  0  0
   -2.0458   -4.4296    0.0000 C   0  0  0  0  0  0  0  0  0  0  0  0
   -3.4706   -3.9606    0.0000 C   0  0  0  0  0  0  0  0  0  0  0  0
   -4.8954   -3.4916    0.0000 C   0  0  0  0  0  0  0  0  0  0  0  0
   -6.3947   -3.5382    0.0000 C   0  0  0  0  0  0  0  0  0  0  0  0
   -5.6047   -4.8133    0.0000 C   0  0  0  0  0  0  0  0  0  0  0  0
   -6.7233   -5.8127    0.0000 C   0  0  0  0  0  0  0  0  0  0  0  0
   -1.5768   -3.0048    0.0000 C   0  0  0  0  0  0  0  0  0  0  0  0
   -0.1520   -3.4738    0.0000 C   0  0  0  0  0  0  0  0  0  0  0  0
    0.3170   -2.0490    0.0000 C   0  0  0  0  0  0  0  0  0  0  0  0
    1.6160   -1.2990    0.0000 C   0  0  0  0  0  0  0  0  0  0  0  0
    0.8660    0.0000    0.0000 C   0  0  0  0  0  0  0  0  0  0  0  0
   -0.4330    0.7500    0.0000 C   0  0  0  0  0  0  0  0  0  0  0  0
   -1.6910   -0.0670    0.0000 C   0  0  0  0  0  0  0  0  0  0  0  0
   -2.3720    1.2696    0.0000 O   0  0  0  0  0  0  0  0  0  0  0  0
   -3.8699    1.3481    0.0000 C   0  0  0  0  0  0  0  0  0  0  0  0
   -5.3679    1.4266    0.0000 C   0  0  0  0  0  0  0  0  0  0  0  0
   -6.8658    1.5051    0.0000 C   0  0  0  0  0  0  0  0  0  0  0  0
   -1.3028   -1.5158    0.0000 C   0  0  0  0  0  0  0  0  0  0  0  0
   -0.4330   -0.7500    0.0000 C   0  0  0  0  0  0  0  0  0  0  0  0
    0.8652   -9.3358    0.0000 H   0  0  0  0  0  0  0  0  0  0  0  0
    2.8026   -7.6048    0.0000 H   0  0  0  0  0  0  0  0  0  0  0  0
   -2.2619   -6.1102    0.0000 H   0  0  0  0  0  0  0  0  0  0  0  0
   -0.1779   -8.9924    0.0000 H   0  0  0  0  0  0  0  0  0  0  0  0
   -3.0274   -8.0544    0.0000 H   0  0  0  0  0  0  0  0  0  0  0  0
   -0.6469  -10.4172    0.0000 H   0  0  0  0  0  0  0  0  0  0  0  0
   -3.4965   -9.4792    0.0000 H   0  0  0  0  0  0  0  0  0  0  0  0
   -2.6099  -14.3949    0.0000 H   0  0  0  0  0  0  0  0  0  0  0  0
   -4.9035  -13.7536    0.0000 H   0  0  0  0  0  0  0  0  0  0  0  0
   -5.3725  -15.1784    0.0000 H   0  0  0  0  0  0  0  0  0  0  0  0
   -5.8415  -16.6032    0.0000 H   0  0  0  0  0  0  0  0  0  0  0  0
   -3.6154  -17.4496    0.0000 H   0  0  0  0  0  0  0  0  0  0  0  0
   -3.4609  -18.9660    0.0000 H   0  0  0  0  0  0  0  0  0  0  0  0
   -6.3105  -18.0280    0.0000 H   0  0  0  0  0  0  0  0  0  0  0  0
   -6.7795  -19.4528    0.0000 H   0  0  0  0  0  0  0  0  0  0  0  0
   -3.9299  -20.3908    0.0000 H   0  0  0  0  0  0  0  0  0  0  0  0
   -4.8243  -22.4651    0.0000 H   0  0  0  0  0  0  0  0  0  0  0  0
   -2.1455  -15.3151    0.0000 H   0  0  0  0  0  0  0  0  0  0  0  0
   -2.6952  -16.9852    0.0000 H   0  0  0  0  0  0  0  0  0  0  0  0
   -1.5671  -18.0102    0.0000 H   0  0  0  0  0  0  0  0  0  0  0  0
   -0.6291  -15.1606    0.0000 H   0  0  0  0  0  0  0  0  0  0  0  0
    0.7957  -15.6296    0.0000 H   0  0  0  0  0  0  0  0  0  0  0  0
   -0.3125  -18.4114    0.0000 H   0  0  0  0  0  0  0  0  0  0  0  0
    2.2205  -16.0986    0.0000 H   0  0  0  0  0  0  0  0  0  0  0  0
    4.6011  -18.4614    0.0000 H   0  0  0  0  0  0  0  0  0  0  0  0
    3.6453  -16.5676    0.0000 H   0  0  0  0  0  0  0  0  0  0  0  0
    3.0039  -18.8612    0.0000 H   0  0  0  0  0  0  0  0  0  0  0  0
    2.0838  -19.3257    0.0000 H   0  0  0  0  0  0  0  0  0  0  0  0
   -0.1889  -18.6564    0.0000 H   0  0  0  0  0  0  0  0  0  0  0  0
    0.3445  -21.7978    0.0000 H   0  0  0  0  0  0  0  0  0  0  0  0
    2.2383  -20.8420    0.0000 H   0  0  0  0  0  0  0  0  0  0  0  0
   -0.6113  -19.9040    0.0000 H   0  0  0  0  0  0  0  0  0  0  0  0
    3.6534   -6.3056    0.0000 H   0  0  0  0  0  0  0  0  0  0  0  0
    2.1183   -7.3326    0.0000 H   0  0  0  0  0  0  0  0  0  0  0  0
    2.8677   -4.4796    0.0000 H   0  0  0  0  0  0  0  0  0  0  0  0
    1.0959   -2.4533    0.0000 H   0  0  0  0  0  0  0  0  0  0  0  0
    0.0182   -3.5416    0.0000 H   0  0  0  0  0  0  0  0  0  0  0  0
   -1.4209   -6.1676    0.0000 H   0  0  0  0  0  0  0  0  0  0  0  0
   -2.6850   -5.7866    0.0000 H   0  0  0  0  0  0  0  0  0  0  0  0
   -3.7624   -5.4319    0.0000 H   0  0  0  0  0  0  0  0  0  0  0  0
   -3.3603   -2.4647    0.0000 H   0  0  0  0  0  0  0  0  0  0  0  0
   -4.6809   -2.0070    0.0000 H   0  0  0  0  0  0  0  0  0  0  0  0
   -6.7009   -2.0698    0.0000 H   0  0  0  0  0  0  0  0  0  0  0  0
   -7.8451   -3.9208    0.0000 H   0  0  0  0  0  0  0  0  0  0  0  0
   -4.5482   -5.8781    0.0000 H   0  0  0  0  0  0  0  0  0  0  0  0
   -7.8418   -6.8121    0.0000 H   0  0  0  0  0  0  0  0  0  0  0  0
   -5.7239   -6.9313    0.0000 H   0  0  0  0  0  0  0  0  0  0  0  0
   -7.8516   -4.8243    0.0000 H   0  0  0  0  0  0  0  0  0  0  0  0
   -3.0016   -2.5358    0.0000 H   0  0  0  0  0  0  0  0  0  0  0  0
    1.3439   -3.5841    0.0000 H   0  0  0  0  0  0  0  0  0  0  0  0
   -0.2623   -4.9698    0.0000 H   0  0  0  0  0  0  0  0  0  0  0  0
    2.9151   -0.5490    0.0000 H   0  0  0  0  0  0  0  0  0  0  0  0
    2.3660   -2.5981    0.0000 H   0  0  0  0  0  0  0  0  0  0  0  0
    1.9267    1.0607    0.0000 H   0  0  0  0  0  0  0  0  0  0  0  0
   -1.1830    2.0490    0.0000 H   0  0  0  0  0  0  0  0  0  0  0  0
   -3.0914   -0.6045    0.0000 H   0  0  0  0  0  0  0  0  0  0  0  0
   -3.9485   -0.1499    0.0000 H   0  0  0  0  0  0  0  0  0  0  0  0
   -3.7914    2.8460    0.0000 H   0  0  0  0  0  0  0  0  0  0  0  0
   -5.2894    2.9245    0.0000 H   0  0  0  0  0  0  0  0  0  0  0  0
   -5.4464   -0.0714    0.0000 H   0  0  0  0  0  0  0  0  0  0  0  0
   -8.3638    1.5836    0.0000 H   0  0  0  0  0  0  0  0  0  0  0  0
   -6.7873    3.0030    0.0000 H   0  0  0  0  0  0  0  0  0  0  0  0
   -6.9443    0.0071    0.0000 H   0  0  0  0  0  0  0  0  0  0  0  0
   -2.7882   -1.3070    0.0000 H   0  0  0  0  0  0  0  0  0  0  0  0
   -1.9328   -0.7761    0.0000 H   0  0  0  0  0  0  0  0  0  0  0  0
  1  2  2  3
  2  3  1  0
  3  4  1  0
  4  5  1  0
  5  6  1  0
  6  7  3  0
  7  8  1  0
  8  9  1  0
  9 10  1  0
 10 11  1  0
 11 12  1  0
 12 13  1  0
  9 14  1  0
 14 15  1  0
 15 16  1  0
 16 17  1  0
 17 18  1  0
 17 19  1  0
 19 20  1  0
  2 21  1  0
 21 22  1  0
 21 23  1  0
 23 24  2  0
 21 25  1  0
 25 26  1  0
 26 27  1  0
 27 28  1  0
 28 29  1  0
 29 30  1  0
 30 31  1  0
 26 32  1  0
 32 33  1  0
 33 34  1  0
 34 35  1  0
 35 36  1  0
 36 37  1  0
 37 38  1  0
 38 39  1  0
 39 40  1  0
 40 41  1  0
 41 42  1  0
 38 43  1  0
 37 44  1  0
 30 28  1  0
 43 32  1  0
 43 34  1  0
 44 34  1  0
 44 36  1  0
  1 45  1  0
  1 46  1  0
  3 47  1  0
  4 48  1  0
  4 49  1  0
  5 50  1  0
  5 51  1  0
  8 52  1  0
  8 53  1  0
  9 54  1  0
 10 55  1  0
 10 56  1  0
 11 57  1  0
 11 58  1  0
 12 59  1  0
 12 60  1  0
 13 61  1  0
 14 62  1  0
 14 63  1  0
 15 64  1  0
 15 65  1  0
 16 66  1  0
 16 67  1  0
 17 68  1  0
 18 69  1  0
 18 70  1  0
 18 71  1  0
 19 72  1  0
 19 73  1  0
 20 74  1  0
 20 75  1  0
 20 76  1  0
 22 77  1  0
 22 78  1  0
 22 79  1  0
 23 80  1  0
 25 81  1  0
 25 82  1  0
 26 83  1  0
 27 84  1  0
 27 85  1  0
 28 86  1  0
 29 87  1  0
 29 88  1  0
 30 89  1  0
 31 90  1  0
 31 91  1  0
 31 92  1  0
 32 93  1  0
 33 94  1  0
 33 95  1  0
 35 96  1  0
 35 97  1  0
 36 98  1  0
 37 99  1  0
 38100  1  0
 40101  1  0
 40102  1  0
 41103  1  0
 41104  1  0
 42105  1  0
 42106  1  0
 42107  1  0
 43108  1  0
 44109  1  0
M  END
$$$$
