
     RDKit          2D

 27 28  0  0  0  0  0  0  0  0999 V2000
   -0.4330    2.2500    0.0000 C   0  0  0  0  0  0  0  0  0  0  0  0
   -0.4330    0.7500    0.0000 C   0  0  0  0  0  0  0  0  0  0  0  0
    0.8660    0.0000    0.0000 C   0  0  0  0  0  0  0  0  0  0  0  0
    1.8302    1.1491    0.0000 Se  0  0  0  0  0  2  0  0  0  0  0  0
    3.3074    0.8886    0.0000 C   0  0  0  0  0  0  0  0  0  0  0  0
    4.7846    0.6281    0.0000 C   0  0  0  0  0  0  0  0  0  0  0  0
    6.2618    0.3676    0.0000 N   0  0  0  0  0  0  0  0  0  0  0  0
   -0.4330   -0.7500    0.0000 C   0  0  0  0  0  0  0  0  0  0  0  0
   -1.7321    0.0000    0.0000 C   0  0  0  0  0  0  0  0  0  0  0  0
   -2.6962    1.1491    0.0000 O   0  0  0  0  0  0  0  0  0  0  0  0
   -2.6962   -1.1491    0.0000 C   0  0  0  0  0  0  0  0  0  0  0  0
   -3.6604   -2.2981    0.0000 O   0  0  0  0  0  0  0  0  0  0  0  0
   -0.4330    3.7500    0.0000 H   0  0  0  0  0  0  0  0  0  0  0  0
    1.0670    2.2500    0.0000 H   0  0  0  0  0  0  0  0  0  0  0  0
   -1.9330    2.2500    0.0000 H   0  0  0  0  0  0  0  0  0  0  0  0
    1.8302   -1.1491    0.0000 H   0  0  0  0  0  0  0  0  0  0  0  0
    3.0469   -0.5886    0.0000 H   0  0  0  0  0  0  0  0  0  0  0  0
    3.5679    2.3658    0.0000 H   0  0  0  0  0  0  0  0  0  0  0  0
    4.5242   -0.8491    0.0000 H   0  0  0  0  0  0  0  0  0  0  0  0
    5.0451    2.1053    0.0000 H   0  0  0  0  0  0  0  0  0  0  0  0
    7.2260    1.5167    0.0000 H   0  0  0  0  0  0  0  0  0  0  0  0
    6.7749   -1.0419    0.0000 H   0  0  0  0  0  0  0  0  0  0  0  0
   -0.4330   -2.2500    0.0000 H   0  0  0  0  0  0  0  0  0  0  0  0
   -4.1734    0.8886    0.0000 H   0  0  0  0  0  0  0  0  0  0  0  0
   -3.8453   -0.1849    0.0000 H   0  0  0  0  0  0  0  0  0  0  0  0
   -1.5472   -2.1132    0.0000 H   0  0  0  0  0  0  0  0  0  0  0  0
   -5.1376   -2.0377    0.0000 H   0  0  0  0  0  0  0  0  0  0  0  0
  1  2  1  0
  2  3  1  0
  3  4  1  0
  4  5  1  0
  5  6  1  0
  6  7  1  0
  3  8  1  0
  8  9  1  0
  9 10  1  0
  9 11  1  0
 11 12  1  0
  8  2  1  0
  9  2  1  0
  1 13  1  0
  1 14  1  0
  1 15  1  0
  3 16  1  0
  5 17  1  0
  5 18  1  0
  6 19  1  0
  6 20  1  0
  7 21  1  0
  7 22  1  0
  8 23  1  0
 10 24  1  0
 11 25  1  0
 11 26  1  0
 12 27  1  0
M  END
$$$$
