
     RDKit          2D

 22 24  0  0  0  0  0  0  0  0999 V2000
    1.8302    1.1491    0.0000 O   0  0  0  0  0  0  0  0  0  0  0  0
    0.8660    0.0000    0.0000 C   0  0  0  0  0  0  0  0  0  0  0  0
   -0.4330    0.7500    0.0000 O   0  0  0  0  0  0  0  0  0  0  0  0
   -0.4330   -0.7500    0.0000 C   0  0  0  0  0  0  0  0  0  0  0  0
   -1.9330   -0.7500    0.0000 C   0  0  0  0  0  0  0  0  0  0  0  0
   -2.6830   -2.0490    0.0000 C   0  0  0  0  0  0  0  0  0  0  0  0
   -1.9330   -3.3481    0.0000 C   0  0  0  0  0  0  0  0  0  0  0  0
   -0.4330   -3.3481    0.0000 C   0  0  0  0  0  0  0  0  0  0  0  0
    1.0670   -3.3481    0.0000 C   0  0  0  0  0  0  0  0  0  0  0  0
    0.3170   -2.0490    0.0000 C   0  0  0  0  0  0  0  0  0  0  0  0
    3.3074    0.8886    0.0000 H   0  0  0  0  0  0  0  0  0  0  0  0
    1.8302   -1.1491    0.0000 H   0  0  0  0  0  0  0  0  0  0  0  0
   -3.3426   -0.2370    0.0000 H   0  0  0  0  0  0  0  0  0  0  0  0
   -1.6725    0.7272    0.0000 H   0  0  0  0  0  0  0  0  0  0  0  0
   -3.8321   -3.0132    0.0000 H   0  0  0  0  0  0  0  0  0  0  0  0
   -3.8321   -1.0849    0.0000 H   0  0  0  0  0  0  0  0  0  0  0  0
   -1.6725   -4.8253    0.0000 H   0  0  0  0  0  0  0  0  0  0  0  0
   -3.3426   -3.8611    0.0000 H   0  0  0  0  0  0  0  0  0  0  0  0
   -0.4330   -4.8481    0.0000 H   0  0  0  0  0  0  0  0  0  0  0  0
    1.3275   -4.8253    0.0000 H   0  0  0  0  0  0  0  0  0  0  0  0
    2.4765   -2.8350    0.0000 H   0  0  0  0  0  0  0  0  0  0  0  0
   -0.2564   -2.6028    0.0000 H   0  0  0  0  0  0  0  0  0  0  0  0
  1  2  1  0
  2  3  1  0
  4  3  1  6
  4  5  1  0
  5  6  1  0
  6  7  1  0
  7  8  1  0
  8  9  1  0
  9 10  1  0
  4  2  1  0
 10  8  1  0
 10  4  1  0
  1 11  1  0
  2 12  1  6
  5 13  1  0
  5 14  1  0
  6 15  1  0
  6 16  1  0
  7 17  1  0
  7 18  1  0
  8 19  1  6
  9 20  1  0
  9 21  1  0
 10 22  1  6
M  END
$$$$
