
     RDKit          2D

106115  0  0  0  0  0  0  0  0999 V2000
  -12.1650   -8.6978    0.0000 C   0  0  0  0  0  0  0  0  0  0  0  0
  -13.2797   -7.6941    0.0000 C   0  0  0  0  0  0  0  0  0  0  0  0
  -14.3944   -6.6905    0.0000 C   0  0  0  0  0  0  0  0  0  0  0  0
  -15.5091   -5.6868    0.0000 C   0  0  0  0  0  0  0  0  0  0  0  0
  -16.6238   -4.6831    0.0000 C   0  0  0  0  0  0  0  0  0  0  0  0
  -17.7385   -3.6794    0.0000 O   0  0  0  0  0  0  0  0  0  0  0  0
  -17.6275   -5.7978    0.0000 Cl  0  0  0  0  0  0  0  0  0  0  0  0
  -13.3907   -5.5757    0.0000 C   0  0  0  0  0  0  0  0  0  0  0  0
  -12.3870   -4.4610    0.0000 C   0  0  0  0  0  0  0  0  0  0  0  0
  -11.1149   -5.2559    0.0000 C   0  0  0  0  0  0  0  0  0  0  0  0
  -11.0626   -3.7568    0.0000 C   0  0  0  0  0  0  0  0  0  0  0  0
  -11.5261   -2.3302    0.0000 C   0  0  0  0  0  0  0  0  0  0  0  0
  -13.0115   -2.5390    0.0000 C   0  0  0  0  0  0  0  0  0  0  0  0
  -14.4969   -2.7477    0.0000 C   0  0  0  0  0  0  0  0  0  0  0  0
  -11.4738   -0.8311    0.0000 N   0  0  0  0  0  0  0  0  0  0  0  0
  -10.2017   -1.6260    0.0000 C   0  0  0  0  0  0  0  0  0  0  0  0
   -9.1980   -0.5113    0.0000 C   0  0  0  0  0  0  0  0  0  0  0  0
   -7.8736    0.1929    0.0000 C   0  0  0  0  0  0  0  0  0  0  0  0
   -7.9259   -1.3062    0.0000 C   0  0  0  0  0  0  0  0  0  0  0  0
   -6.4587   -1.6180    0.0000 C   0  0  0  0  0  0  0  0  0  0  0  0
   -4.9915   -1.9299    0.0000 C   0  0  0  0  0  0  0  0  0  0  0  0
   -3.5242   -2.2418    0.0000 C   0  0  0  0  0  0  0  0  0  0  0  0
   -2.0570   -2.5537    0.0000 C   0  0  0  0  0  0  0  0  0  0  0  0
   -0.6867   -3.1638    0.0000 C   0  0  0  0  0  0  0  0  0  0  0  0
    0.3170   -2.0490    0.0000 C   0  0  0  0  0  0  0  0  0  0  0  0
    1.6160   -1.2990    0.0000 C   0  0  0  0  0  0  0  0  0  0  0  0
    2.9151   -0.5490    0.0000 C   0  0  0  0  0  0  0  0  0  0  0  0
    0.8660    0.0000    0.0000 C   0  0  0  0  0  0  0  0  0  0  0  0
   -0.4330    0.7500    0.0000 C   0  0  0  0  0  0  0  0  0  0  0  0
   -1.1830    2.0490    0.0000 C   0  0  0  0  0  0  0  0  0  0  0  0
   -1.9002   -1.0619    0.0000 C   0  0  0  0  0  0  0  0  0  0  0  0
   -0.4330   -0.7500    0.0000 C   0  0  0  0  0  0  0  0  0  0  0  0
   -5.3033   -3.3971    0.0000 C   0  0  0  0  0  0  0  0  0  0  0  0
   -3.9126   -3.9590    0.0000 C   0  0  0  0  0  0  0  0  0  0  0  0
   -3.7038   -5.4444    0.0000 C   0  0  0  0  0  0  0  0  0  0  0  0
   -2.2047   -5.4968    0.0000 C   0  0  0  0  0  0  0  0  0  0  0  0
   -0.7056   -5.5491    0.0000 C   0  0  0  0  0  0  0  0  0  0  0  0
    0.7935   -5.6015    0.0000 C   0  0  0  0  0  0  0  0  0  0  0  0
    0.7411   -7.1006    0.0000 C   0  0  0  0  0  0  0  0  0  0  0  0
    0.6888   -8.5997    0.0000 C   0  0  0  0  0  0  0  0  0  0  0  0
    0.6364  -10.0988    0.0000 C   0  0  0  0  0  0  0  0  0  0  0  0
    0.8458   -4.1024    0.0000 C   0  0  0  0  0  0  0  0  0  0  0  0
    2.3449   -4.1548    0.0000 C   0  0  0  0  0  0  0  0  0  0  0  0
    2.2925   -5.6538    0.0000 N   0  0  0  0  0  0  0  0  0  0  0  0
   -5.0946   -4.8825    0.0000 C   0  0  0  0  0  0  0  0  0  0  0  0
  -11.0502   -9.7015    0.0000 H   0  0  0  0  0  0  0  0  0  0  0  0
  -15.3981   -7.8052    0.0000 H   0  0  0  0  0  0  0  0  0  0  0  0
  -16.1107   -6.2097    0.0000 H   0  0  0  0  0  0  0  0  0  0  0  0
  -15.9663   -6.3398    0.0000 H   0  0  0  0  0  0  0  0  0  0  0  0
  -15.7635   -3.4543    0.0000 H   0  0  0  0  0  0  0  0  0  0  0  0
  -19.1651   -4.1429    0.0000 H   0  0  0  0  0  0  0  0  0  0  0  0
  -12.4066   -6.7078    0.0000 H   0  0  0  0  0  0  0  0  0  0  0  0
  -14.6194   -4.7154    0.0000 H   0  0  0  0  0  0  0  0  0  0  0  0
  -13.4477   -3.4004    0.0000 H   0  0  0  0  0  0  0  0  0  0  0  0
   -9.6477   -5.5678    0.0000 H   0  0  0  0  0  0  0  0  0  0  0  0
  -11.5031   -6.7048    0.0000 H   0  0  0  0  0  0  0  0  0  0  0  0
   -9.5628   -3.7307    0.0000 H   0  0  0  0  0  0  0  0  0  0  0  0
  -13.2203   -1.0536    0.0000 H   0  0  0  0  0  0  0  0  0  0  0  0
  -13.3490   -4.0005    0.0000 H   0  0  0  0  0  0  0  0  0  0  0  0
  -15.9967   -2.7739    0.0000 H   0  0  0  0  0  0  0  0  0  0  0  0
  -14.7057   -1.2623    0.0000 H   0  0  0  0  0  0  0  0  0  0  0  0
  -14.4708   -4.2475    0.0000 H   0  0  0  0  0  0  0  0  0  0  0  0
  -12.1780    0.4933    0.0000 H   0  0  0  0  0  0  0  0  0  0  0  0
   -9.2782   -2.8080    0.0000 H   0  0  0  0  0  0  0  0  0  0  0  0
  -10.1215    0.6707    0.0000 H   0  0  0  0  0  0  0  0  0  0  0  0
   -8.3371    1.6195    0.0000 H   0  0  0  0  0  0  0  0  0  0  0  0
   -6.4247    0.5812    0.0000 H   0  0  0  0  0  0  0  0  0  0  0  0
   -8.3141   -2.7551    0.0000 H   0  0  0  0  0  0  0  0  0  0  0  0
   -5.9703   -0.1998    0.0000 H   0  0  0  0  0  0  0  0  0  0  0  0
   -6.9471   -3.0363    0.0000 H   0  0  0  0  0  0  0  0  0  0  0  0
   -4.6796   -0.4627    0.0000 H   0  0  0  0  0  0  0  0  0  0  0  0
   -3.3936   -0.7475    0.0000 H   0  0  0  0  0  0  0  0  0  0  0  0
   -3.4718   -3.7409    0.0000 H   0  0  0  0  0  0  0  0  0  0  0  0
   -2.6910   -3.9131    0.0000 H   0  0  0  0  0  0  0  0  0  0  0  0
   -1.5895   -4.3617    0.0000 H   0  0  0  0  0  0  0  0  0  0  0  0
    0.7041   -3.7256    0.0000 H   0  0  0  0  0  0  0  0  0  0  0  0
    1.3960   -3.0910    0.0000 H   0  0  0  0  0  0  0  0  0  0  0  0
    2.5188   -2.4970    0.0000 H   0  0  0  0  0  0  0  0  0  0  0  0
    4.2141    0.2010    0.0000 H   0  0  0  0  0  0  0  0  0  0  0  0
    3.6651   -1.8481    0.0000 H   0  0  0  0  0  0  0  0  0  0  0  0
    2.3290    0.8317    0.0000 H   0  0  0  0  0  0  0  0  0  0  0  0
    1.7895    1.1820    0.0000 H   0  0  0  0  0  0  0  0  0  0  0  0
   -1.9330    3.3481    0.0000 H   0  0  0  0  0  0  0  0  0  0  0  0
    0.1160    2.7990    0.0000 H   0  0  0  0  0  0  0  0  0  0  0  0
   -2.4821    1.2990    0.0000 H   0  0  0  0  0  0  0  0  0  0  0  0
   -2.8843    0.0702    0.0000 H   0  0  0  0  0  0  0  0  0  0  0  0
   -6.7976   -3.5279    0.0000 H   0  0  0  0  0  0  0  0  0  0  0  0
   -2.7305   -3.0356    0.0000 H   0  0  0  0  0  0  0  0  0  0  0  0
   -4.0157   -6.9117    0.0000 H   0  0  0  0  0  0  0  0  0  0  0  0
   -2.2571   -6.9959    0.0000 H   0  0  0  0  0  0  0  0  0  0  0  0
   -2.5167   -4.0296    0.0000 H   0  0  0  0  0  0  0  0  0  0  0  0
   -0.6533   -4.0501    0.0000 H   0  0  0  0  0  0  0  0  0  0  0  0
   -0.7580   -7.0482    0.0000 H   0  0  0  0  0  0  0  0  0  0  0  0
    2.2226   -7.3353    0.0000 H   0  0  0  0  0  0  0  0  0  0  0  0
    2.2354   -6.9698    0.0000 H   0  0  0  0  0  0  0  0  0  0  0  0
   -0.8103   -8.5473    0.0000 H   0  0  0  0  0  0  0  0  0  0  0  0
    2.1878   -8.6520    0.0000 H   0  0  0  0  0  0  0  0  0  0  0  0
    0.5841  -11.5978    0.0000 H   0  0  0  0  0  0  0  0  0  0  0  0
   -0.8627  -10.0464    0.0000 H   0  0  0  0  0  0  0  0  0  0  0  0
    2.1355  -10.1511    0.0000 H   0  0  0  0  0  0  0  0  0  0  0  0
    1.0805   -2.6209    0.0000 H   0  0  0  0  0  0  0  0  0  0  0  0
   -0.6533   -4.0501    0.0000 H   0  0  0  0  0  0  0  0  0  0  0  0
    3.8440   -4.2071    0.0000 H   0  0  0  0  0  0  0  0  0  0  0  0
    2.5796   -2.6732    0.0000 H   0  0  0  0  0  0  0  0  0  0  0  0
    3.3155   -6.7509    0.0000 H   0  0  0  0  0  0  0  0  0  0  0  0
   -6.2766   -5.8060    0.0000 H   0  0  0  0  0  0  0  0  0  0  0  0
  1  2  3  0
  2  3  1  0
  3  4  1  0
  4  5  1  0
  5  6  1  0
  5  7  1  0
  3  8  1  0
  8  9  1  0
  9 10  1  0
 10 11  1  0
 11 12  1  0
 12 13  1  0
 13 14  1  0
 12 15  1  0
 15 16  1  0
 16 17  1  0
 17 18  1  0
 18 19  1  0
 19 20  1  0
 20 21  1  0
 21 22  1  0
 22 23  1  0
 23 24  1  0
 24 25  1  0
 25 26  1  0
 26 27  1  0
 26 28  1  0
 28 29  1  0
 29 30  1  0
 29 31  1  0
 31 32  1  0
 21 33  1  0
 33 34  1  0
 34 35  1  0
 35 36  1  0
 36 37  1  0
 37 38  1  0
 38 39  1  0
 39 40  1  0
 40 41  1  0
 38 42  1  0
 42 43  1  0
 43 44  1  0
 35 45  1  0
 11  9  1  0
 16 12  1  0
 19 17  1  0
 31 23  1  0
 45 33  1  0
 32 25  1  0
 45 34  1  0
 32 28  1  0
 44 38  1  0
 32 29  1  0
  1 46  1  0
  3 47  1  0
  4 48  1  0
  4 49  1  0
  5 50  1  0
  6 51  1  0
  8 52  1  0
  8 53  1  0
  9 54  1  0
 10 55  1  0
 10 56  1  0
 11 57  1  0
 13 58  1  0
 13 59  1  0
 14 60  1  0
 14 61  1  0
 14 62  1  0
 15 63  1  0
 16 64  1  0
 17 65  1  0
 18 66  1  0
 18 67  1  0
 19 68  1  0
 20 69  1  0
 20 70  1  0
 21 71  1  0
 22 72  1  0
 22 73  1  0
 23 74  1  0
 24 75  1  0
 24 76  1  0
 25 77  1  0
 26 78  1  0
 27 79  1  0
 27 80  1  0
 27 81  1  0
 28 82  1  0
 30 83  1  0
 30 84  1  0
 30 85  1  0
 31 86  1  0
 33 87  1  0
 34 88  1  0
 35 89  1  0
 36 90  1  0
 36 91  1  0
 37 92  1  0
 37 93  1  0
 39 94  1  0
 39 95  1  0
 40 96  1  0
 40 97  1  0
 41 98  1  0
 41 99  1  0
 41100  1  0
 42101  1  0
 42102  1  0
 43103  1  0
 43104  1  0
 44105  1  0
 45106  1  0
M  END
$$$$
