
     RDKit          2D

 60 63  0  0  0  0  0  0  0  0999 V2000
    0.3434   -6.6478    0.0000 C   0  0  0  0  0  0  0  0  0  0  0  0
    1.4041   -5.5871    0.0000 C   0  0  0  0  0  0  0  0  0  0  0  0
    2.9041   -5.5871    0.0000 C   0  0  0  0  0  0  0  0  0  0  0  0
    2.9041   -7.0871    0.0000 C   0  0  0  0  0  0  0  0  0  0  0  0
    2.9041   -8.5871    0.0000 C   0  0  0  0  0  0  0  0  0  0  0  0
    2.9041   -4.0871    0.0000 N   0  0  0  0  0  0  0  0  0  0  0  0
    2.9041   -2.5871    0.0000 C   0  0  0  0  0  0  0  0  0  0  0  0
    2.1541   -1.2881    0.0000 C   0  0  0  0  0  0  0  0  0  0  0  0
    1.4041   -2.5871    0.0000 C   0  0  0  0  0  0  0  0  0  0  0  0
   -0.0448   -2.1989    0.0000 N   0  0  0  0  0  0  0  0  0  0  0  0
   -1.1054   -3.2595    0.0000 C   0  0  0  0  0  0  0  0  0  0  0  0
   -2.1661   -4.3202    0.0000 C   0  0  0  0  0  0  0  0  0  0  0  0
   -3.2268   -5.3809    0.0000 O   0  0  0  0  0  0  0  0  0  0  0  0
   -2.1661   -2.1989    0.0000 O   0  0  0  0  0  0  0  0  0  0  0  0
   -3.6150   -2.5871    0.0000 Al  0  0  0  0  0  3  0  0  0  0  0  0
   -4.0032   -4.0360    0.0000 C   0  0  0  0  0  0  0  0  0  0  0  0
   -3.8725   -5.5303    0.0000 C   0  0  0  0  0  0  0  0  0  0  0  0
   -5.4521   -4.4242    0.0000 C   0  0  0  0  0  0  0  0  0  0  0  0
   -6.5128   -3.3636    0.0000 C   0  0  0  0  0  0  0  0  0  0  0  0
   -6.1245   -1.9147    0.0000 C   0  0  0  0  0  0  0  0  0  0  0  0
   -6.2553   -0.4204    0.0000 O   0  0  0  0  0  0  0  0  0  0  0  0
   -4.6757   -1.5265    0.0000 As  0  0  0  0  0  3  0  0  0  0  0  0
   -4.2874   -0.0776    0.0000 C   0  0  0  0  0  0  0  0  0  0  0  0
   -2.8385   -0.4658    0.0000 O   0  0  0  0  0  0  0  0  0  0  0  0
   -1.7779    0.5949    0.0000 C   0  0  0  0  0  0  0  0  0  0  0  0
   -5.7363    0.3107    0.0000 O   0  0  0  0  0  0  0  0  0  0  0  0
   -6.1245    1.7595    0.0000 O   0  0  0  0  0  0  0  0  0  0  0  0
    1.4041   -4.0871    0.0000 C   0  0  0  0  0  0  0  0  0  0  0  0
    0.5522   -8.1332    0.0000 H   0  0  0  0  0  0  0  0  0  0  0  0
   -1.1420   -6.4391    0.0000 H   0  0  0  0  0  0  0  0  0  0  0  0
    4.4041   -5.5871    0.0000 H   0  0  0  0  0  0  0  0  0  0  0  0
    4.4041   -7.0871    0.0000 H   0  0  0  0  0  0  0  0  0  0  0  0
    1.4041   -7.0871    0.0000 H   0  0  0  0  0  0  0  0  0  0  0  0
    2.9041  -10.0871    0.0000 H   0  0  0  0  0  0  0  0  0  0  0  0
    4.4041   -8.5871    0.0000 H   0  0  0  0  0  0  0  0  0  0  0  0
    1.4153   -8.7700    0.0000 H   0  0  0  0  0  0  0  0  0  0  0  0
    4.3530   -2.1989    0.0000 H   0  0  0  0  0  0  0  0  0  0  0  0
    3.3032   -0.3239    0.0000 H   0  0  0  0  0  0  0  0  0  0  0  0
    1.0050   -0.3239    0.0000 H   0  0  0  0  0  0  0  0  0  0  0  0
   -0.2535   -0.7135    0.0000 H   0  0  0  0  0  0  0  0  0  0  0  0
   -0.1820   -4.4416    0.0000 H   0  0  0  0  0  0  0  0  0  0  0  0
   -3.4519   -3.5477    0.0000 H   0  0  0  0  0  0  0  0  0  0  0  0
   -1.2426   -5.5023    0.0000 H   0  0  0  0  0  0  0  0  0  0  0  0
   -2.8385   -6.8298    0.0000 H   0  0  0  0  0  0  0  0  0  0  0  0
   -2.5850   -4.5244    0.0000 H   0  0  0  0  0  0  0  0  0  0  0  0
   -3.7418   -7.0246    0.0000 H   0  0  0  0  0  0  0  0  0  0  0  0
   -5.3397   -5.8422    0.0000 H   0  0  0  0  0  0  0  0  0  0  0  0
   -2.3910   -5.7650    0.0000 H   0  0  0  0  0  0  0  0  0  0  0  0
   -6.6808   -5.2846    0.0000 H   0  0  0  0  0  0  0  0  0  0  0  0
   -4.9886   -5.8508    0.0000 H   0  0  0  0  0  0  0  0  0  0  0  0
   -7.8722   -2.7296    0.0000 H   0  0  0  0  0  0  0  0  0  0  0  0
   -7.3731   -4.5923    0.0000 H   0  0  0  0  0  0  0  0  0  0  0  0
   -7.6188   -1.7840    0.0000 H   0  0  0  0  0  0  0  0  0  0  0  0
   -7.6147    0.2135    0.0000 H   0  0  0  0  0  0  0  0  0  0  0  0
   -3.8992    1.3713    0.0000 H   0  0  0  0  0  0  0  0  0  0  0  0
   -0.7172    1.6555    0.0000 H   0  0  0  0  0  0  0  0  0  0  0  0
   -0.5958   -0.3286    0.0000 H   0  0  0  0  0  0  0  0  0  0  0  0
   -2.8385    1.6555    0.0000 H   0  0  0  0  0  0  0  0  0  0  0  0
   -7.5734    2.1478    0.0000 H   0  0  0  0  0  0  0  0  0  0  0  0
   -0.0847   -4.2700    0.0000 H   0  0  0  0  0  0  0  0  0  0  0  0
  1  2  2  3
  2  3  1  0
  3  4  1  0
  4  5  1  0
  3  6  1  0
  6  7  1  0
  7  8  1  0
  8  9  1  0
  9 10  1  0
 10 11  1  0
 11 12  1  0
 12 13  1  0
 11 14  1  0
 14 15  1  0
 15 16  1  0
 16 17  1  0
 16 18  1  0
 18 19  1  0
 19 20  1  0
 20 21  1  0
 20 22  1  0
 22 23  1  0
 23 24  1  0
 24 25  1  0
 23 26  1  0
 26 27  1  0
  9 28  1  0
 28  2  1  0
 28  6  1  0
  9  7  1  0
 22 15  1  0
  1 29  1  0
  1 30  1  0
  3 31  1  0
  4 32  1  0
  4 33  1  0
  5 34  1  0
  5 35  1  0
  5 36  1  0
  7 37  1  0
  8 38  1  0
  8 39  1  0
 10 40  1  0
 11 41  1  0
 12 42  1  0
 12 43  1  0
 13 44  1  0
 16 45  1  0
 17 46  1  0
 17 47  1  0
 17 48  1  0
 18 49  1  0
 18 50  1  0
 19 51  1  0
 19 52  1  0
 20 53  1  0
 21 54  1  0
 23 55  1  0
 25 56  1  0
 25 57  1  0
 25 58  1  0
 27 59  1  0
 28 60  1  0
M  END
$$$$
