
     RDKit          2D

 75 82  0  0  0  0  0  0  0  0999 V2000
    5.2358    3.1867    0.0000 C   0  0  0  0  0  0  0  0  0  0  0  0
    4.2716    2.0377    0.0000 C   0  0  0  0  0  0  0  0  0  0  0  0
    2.7944    2.2981    0.0000 C   0  0  0  0  0  0  0  0  0  0  0  0
    1.8302    1.1491    0.0000 C   0  0  0  0  0  0  0  0  0  0  0  0
    0.8660    0.0000    0.0000 C   0  0  0  0  0  0  0  0  0  0  0  0
   -0.4330    0.7500    0.0000 C   0  0  0  0  0  0  0  0  0  0  0  0
   -1.6058    1.6852    0.0000 C   0  0  0  0  0  0  0  0  0  0  0  0
   -3.0682    1.3515    0.0000 C   0  0  0  0  0  0  0  0  0  0  0  0
   -3.7190    0.0000    0.0000 C   0  0  0  0  0  0  0  0  0  0  0  0
   -3.0682   -1.3515    0.0000 C   0  0  0  0  0  0  0  0  0  0  0  0
   -4.2409   -2.2867    0.0000 C   0  0  0  0  0  0  0  0  0  0  0  0
   -4.2409   -3.7867    0.0000 C   0  0  0  0  0  0  0  0  0  0  0  0
   -3.0682   -4.7219    0.0000 C   0  0  0  0  0  0  0  0  0  0  0  0
   -2.0479   -5.8215    0.0000 C   0  0  0  0  0  0  0  0  0  0  0  0
   -0.5855   -5.4877    0.0000 C   0  0  0  0  0  0  0  0  0  0  0  0
   -0.0028   -6.8699    0.0000 C   0  0  0  0  0  0  0  0  0  0  0  0
    0.6745   -4.6739    0.0000 C   0  0  0  0  0  0  0  0  0  0  0  0
    1.9346   -3.8601    0.0000 C   0  0  0  0  0  0  0  0  0  0  0  0
    1.4884   -5.9339    0.0000 O   0  0  0  0  0  0  0  0  0  0  0  0
    2.9865   -5.8592    0.0000 C   0  0  0  0  0  0  0  0  0  0  0  0
    2.8000   -7.3475    0.0000 C   0  0  0  0  0  0  0  0  0  0  0  0
    3.9957   -8.2532    0.0000 C   0  0  0  0  0  0  0  0  0  0  0  0
    5.3779   -7.6706    0.0000 C   0  0  0  0  0  0  0  0  0  0  0  0
    5.5644   -6.1822    0.0000 C   0  0  0  0  0  0  0  0  0  0  0  0
    4.3687   -5.2765    0.0000 C   0  0  0  0  0  0  0  0  0  0  0  0
    3.5549   -4.0165    0.0000 C   0  0  0  0  0  0  0  0  0  0  0  0
   -1.6058   -4.3881    0.0000 C   0  0  0  0  0  0  0  0  0  0  0  0
   -0.9549   -3.0367    0.0000 C   0  0  0  0  0  0  0  0  0  0  0  0
   -1.6058   -1.6852    0.0000 C   0  0  0  0  0  0  0  0  0  0  0  0
   -0.4330   -0.7500    0.0000 C   0  0  0  0  0  0  0  0  0  0  0  0
   -0.2094    2.2332    0.0000 C   0  0  0  0  0  0  0  0  0  0  0  0
    6.2000    4.3358    0.0000 H   0  0  0  0  0  0  0  0  0  0  0  0
    6.3848    2.2225    0.0000 H   0  0  0  0  0  0  0  0  0  0  0  0
    4.0867    4.1509    0.0000 H   0  0  0  0  0  0  0  0  0  0  0  0
    4.7846    0.6281    0.0000 H   0  0  0  0  0  0  0  0  0  0  0  0
    2.2814    3.7077    0.0000 H   0  0  0  0  0  0  0  0  0  0  0  0
    0.6811    2.1132    0.0000 H   0  0  0  0  0  0  0  0  0  0  0  0
    2.9793    0.1849    0.0000 H   0  0  0  0  0  0  0  0  0  0  0  0
    1.8302   -1.1491    0.0000 H   0  0  0  0  0  0  0  0  0  0  0  0
   -2.0479    3.1186    0.0000 H   0  0  0  0  0  0  0  0  0  0  0  0
   -3.0682    2.8515    0.0000 H   0  0  0  0  0  0  0  0  0  0  0  0
   -4.4790    1.8610    0.0000 H   0  0  0  0  0  0  0  0  0  0  0  0
   -4.9970    0.7853    0.0000 H   0  0  0  0  0  0  0  0  0  0  0  0
   -4.5575   -0.5152    0.0000 H   0  0  0  0  0  0  0  0  0  0  0  0
   -2.4173    0.0000    0.0000 H   0  0  0  0  0  0  0  0  0  0  0  0
   -4.7728   -1.4587    0.0000 H   0  0  0  0  0  0  0  0  0  0  0  0
   -5.7331   -2.4397    0.0000 H   0  0  0  0  0  0  0  0  0  0  0  0
   -5.7331   -3.6337    0.0000 H   0  0  0  0  0  0  0  0  0  0  0  0
   -4.8917   -5.1381    0.0000 H   0  0  0  0  0  0  0  0  0  0  0  0
   -4.0884   -5.8215    0.0000 H   0  0  0  0  0  0  0  0  0  0  0  0
   -2.4900   -7.2549    0.0000 H   0  0  0  0  0  0  0  0  0  0  0  0
    0.5798   -8.2521    0.0000 H   0  0  0  0  0  0  0  0  0  0  0  0
    0.8492   -6.6279    0.0000 H   0  0  0  0  0  0  0  0  0  0  0  0
   -1.3851   -7.4526    0.0000 H   0  0  0  0  0  0  0  0  0  0  0  0
    0.0204   -3.3241    0.0000 H   0  0  0  0  0  0  0  0  0  0  0  0
    3.0860   -2.8987    0.0000 H   0  0  0  0  0  0  0  0  0  0  0  0
    2.5163   -4.4052    0.0000 H   0  0  0  0  0  0  0  0  0  0  0  0
    1.1208   -2.6000    0.0000 H   0  0  0  0  0  0  0  0  0  0  0  0
    2.8091   -5.0820    0.0000 H   0  0  0  0  0  0  0  0  0  0  0  0
    2.1157   -8.6823    0.0000 H   0  0  0  0  0  0  0  0  0  0  0  0
    1.4312   -6.7340    0.0000 H   0  0  0  0  0  0  0  0  0  0  0  0
    4.8095   -9.5133    0.0000 H   0  0  0  0  0  0  0  0  0  0  0  0
    2.8961   -9.2735    0.0000 H   0  0  0  0  0  0  0  0  0  0  0  0
    6.8760   -7.5958    0.0000 H   0  0  0  0  0  0  0  0  0  0  0  0
    5.7117   -9.1330    0.0000 H   0  0  0  0  0  0  0  0  0  0  0  0
    6.2487   -4.8474    0.0000 H   0  0  0  0  0  0  0  0  0  0  0  0
    6.9978   -6.6244    0.0000 H   0  0  0  0  0  0  0  0  0  0  0  0
    5.4683   -4.2563    0.0000 H   0  0  0  0  0  0  0  0  0  0  0  0
    2.9007   -2.6666    0.0000 H   0  0  0  0  0  0  0  0  0  0  0  0
    4.8149   -3.2027    0.0000 H   0  0  0  0  0  0  0  0  0  0  0  0
    2.2948   -4.8303    0.0000 H   0  0  0  0  0  0  0  0  0  0  0  0
    0.3231   -3.8220    0.0000 H   0  0  0  0  0  0  0  0  0  0  0  0
    0.2178   -2.1015    0.0000 H   0  0  0  0  0  0  0  0  0  0  0  0
   -2.2566   -3.0367    0.0000 H   0  0  0  0  0  0  0  0  0  0  0  0
    0.7258    3.4060    0.0000 H   0  0  0  0  0  0  0  0  0  0  0  0
  1  2  1  0
  2  3  2  3
  3  4  1  0
  4  5  1  0
  6  5  1  1
  6  7  1  0
  7  8  1  0
  8  9  1  0
  9 10  1  0
 10 11  1  0
 11 12  1  0
 12 13  1  0
 13 14  1  0
 14 15  1  0
 15 16  1  6
 15 17  1  0
 17 18  1  0
 17 19  1  0
 19 20  1  0
 20 21  1  0
 21 22  1  0
 22 23  1  0
 23 24  1  0
 24 25  1  0
 25 26  1  0
 15 27  1  0
 27 28  1  1
 28 29  1  0
 29 30  1  0
 30 31  1  0
 30  5  1  0
 30  6  1  1
 31  6  1  0
 31  7  1  0
 29 10  1  0
 27 13  1  0
 27 14  1  0
 25 20  1  0
  1 32  1  0
  1 33  1  0
  1 34  1  0
  2 35  1  0
  3 36  1  0
  4 37  1  0
  4 38  1  0
  5 39  1  1
  7 40  1  1
  8 41  1  0
  8 42  1  0
  9 43  1  0
  9 44  1  0
 10 45  1  6
 11 46  1  0
 11 47  1  0
 12 48  1  0
 12 49  1  0
 13 50  1  1
 14 51  1  6
 16 52  1  0
 16 53  1  0
 16 54  1  0
 17 55  1  1
 18 56  1  0
 18 57  1  0
 18 58  1  0
 20 59  1  1
 21 60  1  0
 21 61  1  0
 22 62  1  0
 22 63  1  0
 23 64  1  0
 23 65  1  0
 24 66  1  0
 24 67  1  0
 25 68  1  6
 26 69  1  0
 26 70  1  0
 26 71  1  0
 28 72  1  0
 28 73  1  0
 29 74  1  1
 31 75  1  1
M  END
$$$$
