
     RDKit          2D

121123  0  0  0  0  0  0  0  0999 V2000
  -11.9802    5.7540    0.0000 C   0  0  0  0  0  0  0  0  0  0  0  0
  -10.8311    6.7182    0.0000 C   0  0  0  0  0  0  0  0  0  0  0  0
  -11.0916    8.1954    0.0000 C   0  0  0  0  0  0  0  0  0  0  0  0
  -11.3521    9.6726    0.0000 C   0  0  0  0  0  0  0  0  0  0  0  0
   -9.4216    6.2052    0.0000 C   0  0  0  0  0  0  0  0  0  0  0  0
   -8.0120    5.6921    0.0000 C   0  0  0  0  0  0  0  0  0  0  0  0
   -6.6025    5.1791    0.0000 C   0  0  0  0  0  0  0  0  0  0  0  0
   -8.0120    5.6921    0.0000 C   0  0  0  0  0  0  0  0  0  0  0  0
   -9.4216    6.2052    0.0000 C   0  0  0  0  0  0  0  0  0  0  0  0
  -10.5706    5.2410    0.0000 C   0  0  0  0  0  0  0  0  0  0  0  0
   -9.6820    7.6824    0.0000 C   0  0  0  0  0  0  0  0  0  0  0  0
   -9.9425    9.1596    0.0000 C   0  0  0  0  0  0  0  0  0  0  0  0
  -10.2030   10.6368    0.0000 C   0  0  0  0  0  0  0  0  0  0  0  0
  -10.4635   12.1140    0.0000 C   0  0  0  0  0  0  0  0  0  0  0  0
   -8.7258   10.8973    0.0000 O   0  0  0  0  0  0  0  0  0  0  0  0
   -7.1155    3.7696    0.0000 C   0  0  0  0  0  0  0  0  0  0  0  0
   -7.6286    2.3600    0.0000 C   0  0  0  0  0  0  0  0  0  0  0  0
   -8.1416    0.9505    0.0000 C   0  0  0  0  0  0  0  0  0  0  0  0
   -8.6546   -0.4591    0.0000 C   0  0  0  0  0  0  0  0  0  0  0  0
   -6.2190    1.8470    0.0000 C   0  0  0  0  0  0  0  0  0  0  0  0
   -4.8095    1.3340    0.0000 N   0  0  0  0  0  0  0  0  0  0  0  0
   -3.6604    2.2981    0.0000 C   0  0  0  0  0  0  0  0  0  0  0  0
   -4.6246    3.4472    0.0000 C   0  0  0  0  0  0  0  0  0  0  0  0
   -5.5888    4.5963    0.0000 C   0  0  0  0  0  0  0  0  0  0  0  0
   -6.5530    5.7453    0.0000 C   0  0  0  0  0  0  0  0  0  0  0  0
   -7.5171    6.8944    0.0000 C   0  0  0  0  0  0  0  0  0  0  0  0
   -8.4813    8.0435    0.0000 C   0  0  0  0  0  0  0  0  0  0  0  0
   -2.6962    1.1491    0.0000 C   0  0  0  0  0  0  0  0  0  0  0  0
   -1.7321    0.0000    0.0000 C   0  0  0  0  0  0  0  0  0  0  0  0
   -0.4330    0.7500    0.0000 C   0  0  0  0  0  0  0  0  0  0  0  0
    0.8660    0.0000    0.0000 C   0  0  0  0  0  0  0  0  0  0  0  0
    1.8302    1.1491    0.0000 C   0  0  0  0  0  0  0  0  0  0  0  0
   -0.4330   -0.7500    0.0000 C   0  0  0  0  0  0  0  0  0  0  0  0
   -5.7060    3.2565    0.0000 C   0  0  0  0  0  0  0  0  0  0  0  0
   -5.1930    4.6661    0.0000 C   0  0  0  0  0  0  0  0  0  0  0  0
   -3.7834    4.1530    0.0000 C   0  0  0  0  0  0  0  0  0  0  0  0
   -4.2965    2.7435    0.0000 N   0  0  0  0  0  0  0  0  0  0  0  0
   -3.6625    1.3840    0.0000 C   0  0  0  0  0  0  0  0  0  0  0  0
   -3.0286    0.0246    0.0000 C   0  0  0  0  0  0  0  0  0  0  0  0
   -1.6691    0.6585    0.0000 C   0  0  0  0  0  0  0  0  0  0  0  0
   -4.3881   -0.6094    0.0000 C   0  0  0  0  0  0  0  0  0  0  0  0
   -2.3947   -1.3349    0.0000 C   0  0  0  0  0  0  0  0  0  0  0  0
   -3.2550   -2.5636    0.0000 C   0  0  0  0  0  0  0  0  0  0  0  0
   -0.9004   -1.4656    0.0000 C   0  0  0  0  0  0  0  0  0  0  0  0
    0.5939   -1.5964    0.0000 C   0  0  0  0  0  0  0  0  0  0  0  0
  -13.3897    6.2670    0.0000 H   0  0  0  0  0  0  0  0  0  0  0  0
  -11.7197    4.2768    0.0000 H   0  0  0  0  0  0  0  0  0  0  0  0
  -12.5688    7.9349    0.0000 H   0  0  0  0  0  0  0  0  0  0  0  0
  -10.0311    9.2562    0.0000 H   0  0  0  0  0  0  0  0  0  0  0  0
  -11.9622   11.0429    0.0000 H   0  0  0  0  0  0  0  0  0  0  0  0
  -12.8293    9.4121    0.0000 H   0  0  0  0  0  0  0  0  0  0  0  0
  -10.2915   10.7334    0.0000 H   0  0  0  0  0  0  0  0  0  0  0  0
   -9.5783    4.7134    0.0000 H   0  0  0  0  0  0  0  0  0  0  0  0
   -8.9085    7.6147    0.0000 H   0  0  0  0  0  0  0  0  0  0  0  0
   -7.6746    7.1537    0.0000 H   0  0  0  0  0  0  0  0  0  0  0  0
   -8.5251    4.2826    0.0000 H   0  0  0  0  0  0  0  0  0  0  0  0
   -5.9215    6.5156    0.0000 H   0  0  0  0  0  0  0  0  0  0  0  0
   -8.8509    4.4486    0.0000 H   0  0  0  0  0  0  0  0  0  0  0  0
   -8.0383    7.1919    0.0000 H   0  0  0  0  0  0  0  0  0  0  0  0
  -12.0624    5.3977    0.0000 H   0  0  0  0  0  0  0  0  0  0  0  0
  -10.3102    3.7638    0.0000 H   0  0  0  0  0  0  0  0  0  0  0  0
  -11.1086    8.1460    0.0000 H   0  0  0  0  0  0  0  0  0  0  0  0
   -8.3964    8.4550    0.0000 H   0  0  0  0  0  0  0  0  0  0  0  0
  -11.3691    9.6233    0.0000 H   0  0  0  0  0  0  0  0  0  0  0  0
   -8.4653    9.4200    0.0000 H   0  0  0  0  0  0  0  0  0  0  0  0
  -11.6754   10.9231    0.0000 H   0  0  0  0  0  0  0  0  0  0  0  0
  -10.7239   13.5912    0.0000 H   0  0  0  0  0  0  0  0  0  0  0  0
   -9.0290   12.5526    0.0000 H   0  0  0  0  0  0  0  0  0  0  0  0
  -11.9614   12.0355    0.0000 H   0  0  0  0  0  0  0  0  0  0  0  0
   -8.0448   12.2337    0.0000 H   0  0  0  0  0  0  0  0  0  0  0  0
   -8.6073    3.9263    0.0000 H   0  0  0  0  0  0  0  0  0  0  0  0
   -9.0381    2.8730    0.0000 H   0  0  0  0  0  0  0  0  0  0  0  0
   -9.5511    1.4635    0.0000 H   0  0  0  0  0  0  0  0  0  0  0  0
   -6.8051    0.2695    0.0000 H   0  0  0  0  0  0  0  0  0  0  0  0
   -9.1676   -1.8686    0.0000 H   0  0  0  0  0  0  0  0  0  0  0  0
  -10.0642    0.0540    0.0000 H   0  0  0  0  0  0  0  0  0  0  0  0
   -7.2451   -0.9721    0.0000 H   0  0  0  0  0  0  0  0  0  0  0  0
   -5.5380    3.1835    0.0000 H   0  0  0  0  0  0  0  0  0  0  0  0
   -6.5564    0.3854    0.0000 H   0  0  0  0  0  0  0  0  0  0  0  0
   -5.0958   -0.1385    0.0000 H   0  0  0  0  0  0  0  0  0  0  0  0
   -2.4024    3.1151    0.0000 H   0  0  0  0  0  0  0  0  0  0  0  0
   -5.7737    2.4830    0.0000 H   0  0  0  0  0  0  0  0  0  0  0  0
   -3.2764    4.1047    0.0000 H   0  0  0  0  0  0  0  0  0  0  0  0
   -4.5658    5.6933    0.0000 H   0  0  0  0  0  0  0  0  0  0  0  0
   -6.9370    3.9388    0.0000 H   0  0  0  0  0  0  0  0  0  0  0  0
   -7.7020    4.7812    0.0000 H   0  0  0  0  0  0  0  0  0  0  0  0
   -5.5300    6.8424    0.0000 H   0  0  0  0  0  0  0  0  0  0  0  0
   -6.3681    7.8586    0.0000 H   0  0  0  0  0  0  0  0  0  0  0  0
   -8.9844    6.5827    0.0000 H   0  0  0  0  0  0  0  0  0  0  0  0
   -8.7930    9.5107    0.0000 H   0  0  0  0  0  0  0  0  0  0  0  0
   -9.8996    7.5552    0.0000 H   0  0  0  0  0  0  0  0  0  0  0  0
   -7.3323    9.0076    0.0000 H   0  0  0  0  0  0  0  0  0  0  0  0
   -1.5472    2.1132    0.0000 H   0  0  0  0  0  0  0  0  0  0  0  0
   -3.7192    0.0520    0.0000 H   0  0  0  0  0  0  0  0  0  0  0  0
   -2.3895   -1.3482    0.0000 H   0  0  0  0  0  0  0  0  0  0  0  0
   -0.4330    2.2500    0.0000 H   0  0  0  0  0  0  0  0  0  0  0  0
    1.9631   -1.0230    0.0000 H   0  0  0  0  0  0  0  0  0  0  0  0
    2.7944    2.2981    0.0000 H   0  0  0  0  0  0  0  0  0  0  0  0
    2.9793    0.1849    0.0000 H   0  0  0  0  0  0  0  0  0  0  0  0
    0.6811    2.1132    0.0000 H   0  0  0  0  0  0  0  0  0  0  0  0
   -0.4330   -2.2500    0.0000 H   0  0  0  0  0  0  0  0  0  0  0  0
   -6.0434    1.7950    0.0000 H   0  0  0  0  0  0  0  0  0  0  0  0
   -4.5119    6.0026    0.0000 H   0  0  0  0  0  0  0  0  0  0  0  0
   -6.1965    5.7809    0.0000 H   0  0  0  0  0  0  0  0  0  0  0  0
   -2.3219    3.8156    0.0000 H   0  0  0  0  0  0  0  0  0  0  0  0
   -3.2704    5.5626    0.0000 H   0  0  0  0  0  0  0  0  0  0  0  0
   -4.9346    0.5891    0.0000 H   0  0  0  0  0  0  0  0  0  0  0  0
   -2.4969    2.3281    0.0000 H   0  0  0  0  0  0  0  0  0  0  0  0
   -0.5035    1.6025    0.0000 H   0  0  0  0  0  0  0  0  0  0  0  0
   -0.3700   -0.0913    0.0000 H   0  0  0  0  0  0  0  0  0  0  0  0
   -1.9553    2.1310    0.0000 H   0  0  0  0  0  0  0  0  0  0  0  0
   -5.7475   -1.2433    0.0000 H   0  0  0  0  0  0  0  0  0  0  0  0
   -4.1019   -2.0818    0.0000 H   0  0  0  0  0  0  0  0  0  0  0  0
   -4.8515    0.8172    0.0000 H   0  0  0  0  0  0  0  0  0  0  0  0
   -2.6211   -3.9231    0.0000 H   0  0  0  0  0  0  0  0  0  0  0  0
   -4.7493   -2.4329    0.0000 H   0  0  0  0  0  0  0  0  0  0  0  0
   -1.0311   -2.9599    0.0000 H   0  0  0  0  0  0  0  0  0  0  0  0
   -0.2427   -0.1175    0.0000 H   0  0  0  0  0  0  0  0  0  0  0  0
    2.0611   -1.9083    0.0000 H   0  0  0  0  0  0  0  0  0  0  0  0
    0.4632   -3.0907    0.0000 H   0  0  0  0  0  0  0  0  0  0  0  0
    1.0823   -0.1781    0.0000 H   0  0  0  0  0  0  0  0  0  0  0  0
  1  2  2  3
  2  3  1  0
  3  4  1  0
  2  5  1  0
  5  6  1  0
  6  7  1  0
  7  8  1  0
  8  9  1  0
  9 10  2  3
  9 11  1  0
 11 12  1  0
 12 13  1  0
 13 14  1  0
 13 15  1  0
  7 16  1  0
 16 17  1  0
 17 18  1  0
 18 19  1  0
 17 20  1  0
 20 21  1  0
 21 22  1  0
 22 23  1  0
 23 24  1  0
 24 25  1  0
 25 26  1  0
 26 27  1  0
 22 28  1  0
 28 29  1  0
 29 30  1  0
 30 31  1  0
 31 32  1  0
 31 33  1  0
 16 34  1  0
 34 35  1  0
 35 36  1  0
 36 37  1  0
 37 38  1  0
 38 39  1  0
 39 40  1  0
 39 41  1  0
 39 42  1  0
 42 43  2  3
 42 44  1  0
 44 45  1  0
 33 29  1  0
 37 34  1  0
 33 30  1  0
  1 46  1  0
  1 47  1  0
  3 48  1  0
  3 49  1  0
  4 50  1  0
  4 51  1  0
  4 52  1  0
  5 53  1  0
  5 54  1  0
  6 55  1  0
  6 56  1  0
  7 57  1  0
  8 58  1  0
  8 59  1  0
 10 60  1  0
 10 61  1  0
 11 62  1  0
 11 63  1  0
 12 64  1  0
 12 65  1  0
 13 66  1  0
 14 67  1  0
 14 68  1  0
 14 69  1  0
 15 70  1  0
 16 71  1  0
 17 72  1  0
 18 73  1  0
 18 74  1  0
 19 75  1  0
 19 76  1  0
 19 77  1  0
 20 78  1  0
 20 79  1  0
 21 80  1  0
 22 81  1  0
 23 82  1  0
 23 83  1  0
 24 84  1  0
 24 85  1  0
 25 86  1  0
 25 87  1  0
 26 88  1  0
 26 89  1  0
 27 90  1  0
 27 91  1  0
 27 92  1  0
 28 93  1  0
 28 94  1  0
 29 95  1  0
 30 96  1  0
 31 97  1  0
 32 98  1  0
 32 99  1  0
 32100  1  0
 33101  1  0
 34102  1  0
 35103  1  0
 35104  1  0
 36105  1  0
 36106  1  0
 38107  1  0
 38108  1  0
 40109  1  0
 40110  1  0
 40111  1  0
 41112  1  0
 41113  1  0
 41114  1  0
 43115  1  0
 43116  1  0
 44117  1  0
 44118  1  0
 45119  1  0
 45120  1  0
 45121  1  0
M  END
$$$$
