
     RDKit          2D

 84 92  0  0  0  0  0  0  0  0999 V2000
   -3.8857   10.4566    0.0000 C   0  0  0  0  0  0  0  0  0  0  0  0
   -2.3866   10.4043    0.0000 C   0  0  0  0  0  0  0  0  0  0  0  0
   -0.8876   10.3519    0.0000 C   0  0  0  0  0  0  0  0  0  0  0  0
    0.6115   10.2996    0.0000 C   0  0  0  0  0  0  0  0  0  0  0  0
    2.1106   10.2472    0.0000 N   0  0  0  0  0  0  0  0  0  0  0  0
    3.4350   10.9514    0.0000 C   0  0  0  0  0  0  0  0  0  0  0  0
    3.3827    9.4523    0.0000 C   0  0  0  0  0  0  0  0  0  0  0  0
    2.8208    8.0616    0.0000 N   0  0  0  0  0  0  0  0  0  0  0  0
    3.7443    6.8795    0.0000 C   0  0  0  0  0  0  0  0  0  0  0  0
    4.6678    5.6975    0.0000 C   0  0  0  0  0  0  0  0  0  0  0  0
    5.8168    4.7333    0.0000 C   0  0  0  0  0  0  0  0  0  0  0  0
    5.2549    3.3426    0.0000 C   0  0  0  0  0  0  0  0  0  0  0  0
    3.7586    3.4472    0.0000 Sb  0  0  0  0  0  3  0  0  0  0  0  0
    2.7944    2.2981    0.0000 C   0  0  0  0  0  0  0  0  0  0  0  0
    1.8302    1.1491    0.0000 C   0  0  0  0  0  0  0  0  0  0  0  0
    0.8660    0.0000    0.0000 C   0  0  0  0  0  0  0  0  0  0  0  0
    1.8302   -1.1491    0.0000 C   0  0  0  0  0  0  0  0  0  0  0  0
    2.5344   -2.4735    0.0000 B   0  0  0  0  0  0  0  0  0  0  0  0
    4.0198   -2.6822    0.0000 C   0  0  0  0  0  0  0  0  0  0  0  0
    5.5052   -2.8910    0.0000 C   0  0  0  0  0  0  0  0  0  0  0  0
    6.9906   -3.0998    0.0000 C   0  0  0  0  0  0  0  0  0  0  0  0
    7.0430   -4.5989    0.0000 C   0  0  0  0  0  0  0  0  0  0  0  0
    8.4578   -2.7879    0.0000 C   0  0  0  0  0  0  0  0  0  0  0  0
    7.4541   -1.6732    0.0000 O   0  0  0  0  0  0  0  0  0  0  0  0
    1.4924   -3.5525    0.0000 O   0  0  0  0  0  0  0  0  0  0  0  0
    0.1442   -2.8949    0.0000 C   0  0  0  0  0  0  0  0  0  0  0  0
    0.3530   -1.4095    0.0000 C   0  0  0  0  0  0  0  0  0  0  0  0
   -0.2943   -4.3294    0.0000 C   0  0  0  0  0  0  0  0  0  0  0  0
   -2.8258   -4.9138    0.0000 C   0  0  0  0  0  0  0  0  0  0  0  0
   -3.1632   -3.4523    0.0000 C   0  0  0  0  0  0  0  0  0  0  0  0
   -2.7247   -2.0178    0.0000 C   0  0  0  0  0  0  0  0  0  0  0  0
   -2.2861   -0.5834    0.0000 C   0  0  0  0  0  0  0  0  0  0  0  0
   -4.1591   -1.5793    0.0000 C   0  0  0  0  0  0  0  0  0  0  0  0
   -1.2902   -2.4564    0.0000 C   0  0  0  0  0  0  0  0  0  0  0  0
   -1.7288   -3.8908    0.0000 C   0  0  0  0  0  0  0  0  0  0  0  0
    3.3957    4.9026    0.0000 C   0  0  0  0  0  0  0  0  0  0  0  0
   -5.3848   10.5090    0.0000 H   0  0  0  0  0  0  0  0  0  0  0  0
   -3.8334   11.9557    0.0000 H   0  0  0  0  0  0  0  0  0  0  0  0
   -3.9381    8.9575    0.0000 H   0  0  0  0  0  0  0  0  0  0  0  0
   -2.4390    8.9052    0.0000 H   0  0  0  0  0  0  0  0  0  0  0  0
   -2.3343   11.9033    0.0000 H   0  0  0  0  0  0  0  0  0  0  0  0
   -0.9399    8.8528    0.0000 H   0  0  0  0  0  0  0  0  0  0  0  0
   -0.8352   11.8510    0.0000 H   0  0  0  0  0  0  0  0  0  0  0  0
    0.5592    8.8005    0.0000 H   0  0  0  0  0  0  0  0  0  0  0  0
    0.6639   11.7986    0.0000 H   0  0  0  0  0  0  0  0  0  0  0  0
    4.9204   11.1602    0.0000 H   0  0  0  0  0  0  0  0  0  0  0  0
    2.9715   12.3780    0.0000 H   0  0  0  0  0  0  0  0  0  0  0  0
    4.8499    9.1405    0.0000 H   0  0  0  0  0  0  0  0  0  0  0  0
    1.3354    7.8528    0.0000 H   0  0  0  0  0  0  0  0  0  0  0  0
    4.9263    7.8030    0.0000 H   0  0  0  0  0  0  0  0  0  0  0  0
    2.4585    6.1070    0.0000 H   0  0  0  0  0  0  0  0  0  0  0  0
    5.7468    6.7395    0.0000 H   0  0  0  0  0  0  0  0  0  0  0  0
    6.6556    5.9769    0.0000 H   0  0  0  0  0  0  0  0  0  0  0  0
    7.1412    4.0291    0.0000 H   0  0  0  0  0  0  0  0  0  0  0  0
    6.6968    2.9291    0.0000 H   0  0  0  0  0  0  0  0  0  0  0  0
    4.9944    1.8654    0.0000 H   0  0  0  0  0  0  0  0  0  0  0  0
    3.9435    1.3340    0.0000 H   0  0  0  0  0  0  0  0  0  0  0  0
    1.6453    3.2623    0.0000 H   0  0  0  0  0  0  0  0  0  0  0  0
    0.6811    2.1132    0.0000 H   0  0  0  0  0  0  0  0  0  0  0  0
    2.9624    0.4138    0.0000 H   0  0  0  0  0  0  0  0  0  0  0  0
   -0.4330    0.7500    0.0000 H   0  0  0  0  0  0  0  0  0  0  0  0
    3.0331   -0.5362    0.0000 H   0  0  0  0  0  0  0  0  0  0  0  0
    4.2286   -1.1968    0.0000 H   0  0  0  0  0  0  0  0  0  0  0  0
    3.8111   -4.1676    0.0000 H   0  0  0  0  0  0  0  0  0  0  0  0
    5.1907   -4.0646    0.0000 H   0  0  0  0  0  0  0  0  0  0  0  0
    5.7140   -1.4056    0.0000 H   0  0  0  0  0  0  0  0  0  0  0  0
    7.0953   -6.0979    0.0000 H   0  0  0  0  0  0  0  0  0  0  0  0
    8.3878   -4.7165    0.0000 H   0  0  0  0  0  0  0  0  0  0  0  0
    5.8429   -4.7890    0.0000 H   0  0  0  0  0  0  0  0  0  0  0  0
    9.1124   -3.9686    0.0000 H   0  0  0  0  0  0  0  0  0  0  0  0
    9.7299   -1.9930    0.0000 H   0  0  0  0  0  0  0  0  0  0  0  0
   -1.0474   -0.8719    0.0000 H   0  0  0  0  0  0  0  0  0  0  0  0
    0.4099   -5.6538    0.0000 H   0  0  0  0  0  0  0  0  0  0  0  0
   -3.2644   -6.3483    0.0000 H   0  0  0  0  0  0  0  0  0  0  0  0
   -4.6575   -3.5831    0.0000 H   0  0  0  0  0  0  0  0  0  0  0  0
   -1.8476    0.8511    0.0000 H   0  0  0  0  0  0  0  0  0  0  0  0
   -2.9694   -0.1728    0.0000 H   0  0  0  0  0  0  0  0  0  0  0  0
   -3.0485   -0.3503    0.0000 H   0  0  0  0  0  0  0  0  0  0  0  0
   -5.5936   -1.1407    0.0000 H   0  0  0  0  0  0  0  0  0  0  0  0
   -4.0807   -0.0813    0.0000 H   0  0  0  0  0  0  0  0  0  0  0  0
   -4.7693   -2.9496    0.0000 H   0  0  0  0  0  0  0  0  0  0  0  0
   -1.0298   -0.9792    0.0000 H   0  0  0  0  0  0  0  0  0  0  0  0
    1.9861    4.3896    0.0000 H   0  0  0  0  0  0  0  0  0  0  0  0
    2.5787    6.1606    0.0000 H   0  0  0  0  0  0  0  0  0  0  0  0
  1  2  1  0
  2  3  1  0
  3  4  1  0
  4  5  1  0
  5  6  1  0
  6  7  1  0
  7  8  1  0
  8  9  1  0
  9 10  1  0
 10 11  1  0
 11 12  1  0
 12 13  1  0
 13 14  1  0
 14 15  1  0
 15 16  1  0
 16 17  1  0
 17 18  1  0
 18 19  1  0
 19 20  1  0
 20 21  1  0
 21 22  1  0
 21 23  1  0
 23 24  1  0
 18 25  1  0
 25 26  1  0
 26 27  1  0
 26 28  1  0
 28 29  1  0
 29 30  1  0
 30 31  1  0
 31 32  1  0
 31 33  1  0
 31 34  1  0
 34 35  1  0
 13 36  1  0
  7  5  1  0
 36 10  1  0
 27 16  1  0
 35 28  1  0
 27 17  1  0
 35 29  1  0
 24 21  1  0
 34 26  1  0
 35 30  1  0
  1 37  1  0
  1 38  1  0
  1 39  1  0
  2 40  1  0
  2 41  1  0
  3 42  1  0
  3 43  1  0
  4 44  1  0
  4 45  1  0
  6 46  1  0
  6 47  1  0
  7 48  1  0
  8 49  1  0
  9 50  1  0
  9 51  1  0
 10 52  1  0
 11 53  1  0
 11 54  1  0
 12 55  1  0
 12 56  1  0
 14 57  1  0
 14 58  1  0
 15 59  1  0
 15 60  1  0
 16 61  1  0
 17 62  1  0
 19 63  1  0
 19 64  1  0
 20 65  1  0
 20 66  1  0
 22 67  1  0
 22 68  1  0
 22 69  1  0
 23 70  1  0
 23 71  1  0
 27 72  1  0
 28 73  1  0
 29 74  1  0
 30 75  1  0
 32 76  1  0
 32 77  1  0
 32 78  1  0
 33 79  1  0
 33 80  1  0
 33 81  1  0
 34 82  1  0
 36 83  1  0
 36 84  1  0
M  END
$$$$
