
     RDKit          2D

 27 28  0  0  0  0  0  0  0  0999 V2000
   -3.8597   -4.3713    0.0000 C   0  0  0  0  0  0  0  0  0  0  0  0
   -2.5607   -3.6213    0.0000 C   0  0  0  0  0  0  0  0  0  0  0  0
   -1.0607   -3.6213    0.0000 N   0  0  0  0  0  0  0  0  0  0  0  0
    0.0000   -2.5607    0.0000 C   0  0  0  0  0  0  0  0  0  0  0  0
    1.3858   -3.1347    0.0000 O   0  0  0  0  0  0  0  0  0  0  0  0
   -0.0000   -1.0607    0.0000 N   0  0  0  0  0  0  0  0  0  0  0  0
    1.0607    0.0000    0.0000 C   0  0  0  0  0  0  0  0  0  0  0  0
    0.0000    1.0607    0.0000 C   0  0  0  0  0  0  0  0  0  0  0  0
   -1.0607    0.0000    0.0000 C   0  0  0  0  0  0  0  0  0  0  0  0
   -2.5607    0.0000    0.0000 C   0  0  0  0  0  0  0  0  0  0  0  0
   -3.6213   -1.0607    0.0000 N   0  0  0  0  0  0  0  0  0  0  0  0
   -3.6213   -2.5607    0.0000 C   0  0  0  0  0  0  0  0  0  0  0  0
   -5.0071   -3.1347    0.0000 N   0  0  0  0  0  0  0  0  0  0  0  0
   -5.1587   -5.1213    0.0000 H   0  0  0  0  0  0  0  0  0  0  0  0
   -3.1097   -5.6704    0.0000 H   0  0  0  0  0  0  0  0  0  0  0  0
   -4.4135   -3.7979    0.0000 H   0  0  0  0  0  0  0  0  0  0  0  0
   -2.1724   -5.0702    0.0000 H   0  0  0  0  0  0  0  0  0  0  0  0
   -0.4866   -5.0071    0.0000 H   0  0  0  0  0  0  0  0  0  0  0  0
    2.1213    1.0607    0.0000 H   0  0  0  0  0  0  0  0  0  0  0  0
    2.1213   -1.0607    0.0000 H   0  0  0  0  0  0  0  0  0  0  0  0
   -1.0607    2.1213    0.0000 H   0  0  0  0  0  0  0  0  0  0  0  0
    1.0607    2.1213    0.0000 H   0  0  0  0  0  0  0  0  0  0  0  0
   -1.4615    1.4455    0.0000 H   0  0  0  0  0  0  0  0  0  0  0  0
   -2.3519    1.4854    0.0000 H   0  0  0  0  0  0  0  0  0  0  0  0
   -3.8597    0.7500    0.0000 H   0  0  0  0  0  0  0  0  0  0  0  0
   -5.0071   -0.4866    0.0000 H   0  0  0  0  0  0  0  0  0  0  0  0
   -6.1972   -2.2215    0.0000 H   0  0  0  0  0  0  0  0  0  0  0  0
  1  2  1  0
  2  3  1  0
  3  4  1  0
  4  5  2  0
  4  6  1  0
  6  7  1  0
  7  8  1  0
  8  9  1  0
  9 10  1  0
 10 11  1  0
 11 12  1  0
 12 13  2  3
 12  2  1  0
  9  6  1  0
  1 14  1  0
  1 15  1  0
  1 16  1  0
  2 17  1  0
  3 18  1  0
  7 19  1  0
  7 20  1  0
  8 21  1  0
  8 22  1  0
  9 23  1  0
 10 24  1  0
 10 25  1  0
 11 26  1  0
 13 27  1  0
M  END
$$$$
