
     RDKit          2D

 35 39  0  0  0  0  0  0  0  0999 V2000
    2.1213    1.0607    0.0000 O   0  0  0  0  0  0  0  0  0  0  0  0
    1.0607    0.0000    0.0000 C   0  0  0  0  0  0  0  0  0  0  0  0
   -0.0000   -1.0607    0.0000 C   0  0  0  0  0  0  0  0  0  0  0  0
    1.0607   -2.1213    0.0000 C   0  0  0  0  0  0  0  0  0  0  0  0
    2.1213   -3.1820    0.0000 C   0  0  0  0  0  0  0  0  0  0  0  0
    1.0607   -4.2426    0.0000 C   0  0  0  0  0  0  0  0  0  0  0  0
    2.1213   -5.3033    0.0000 C   0  0  0  0  0  0  0  0  0  0  0  0
    1.3713   -6.6023    0.0000 O   0  0  0  0  0  0  0  0  0  0  0  0
    3.5702   -5.6915    0.0000 C   0  0  0  0  0  0  0  0  0  0  0  0
    3.1820   -4.2426    0.0000 C   0  0  0  0  0  0  0  0  0  0  0  0
   -1.0607    0.0000    0.0000 C   0  0  0  0  0  0  0  0  0  0  0  0
   -2.3972    0.6810    0.0000 C   0  0  0  0  0  0  0  0  0  0  0  0
   -2.1625    2.1625    0.0000 N   0  0  0  0  0  0  0  0  0  0  0  0
   -0.6810    2.3972    0.0000 C   0  0  0  0  0  0  0  0  0  0  0  0
    0.0000    1.0607    0.0000 C   0  0  0  0  0  0  0  0  0  0  0  0
   -1.4815    0.8260    0.0000 C   0  0  0  0  0  0  0  0  0  0  0  0
    3.5702    0.6724    0.0000 H   0  0  0  0  0  0  0  0  0  0  0  0
    1.7586   -0.5453    0.0000 H   0  0  0  0  0  0  0  0  0  0  0  0
   -1.0607   -2.1213    0.0000 H   0  0  0  0  0  0  0  0  0  0  0  0
    0.3627   -2.6666    0.0000 H   0  0  0  0  0  0  0  0  0  0  0  0
    1.7586   -1.5760    0.0000 H   0  0  0  0  0  0  0  0  0  0  0  0
    3.1820   -2.1213    0.0000 H   0  0  0  0  0  0  0  0  0  0  0  0
   -0.0000   -5.3033    0.0000 H   0  0  0  0  0  0  0  0  0  0  0  0
    0.3627   -3.6973    0.0000 H   0  0  0  0  0  0  0  0  0  0  0  0
    2.1213   -7.9014    0.0000 H   0  0  0  0  0  0  0  0  0  0  0  0
    3.4395   -7.1858    0.0000 H   0  0  0  0  0  0  0  0  0  0  0  0
    5.0645   -5.5608    0.0000 H   0  0  0  0  0  0  0  0  0  0  0  0
    4.4810   -3.4926    0.0000 H   0  0  0  0  0  0  0  0  0  0  0  0
   -1.9423   -1.2135    0.0000 H   0  0  0  0  0  0  0  0  0  0  0  0
   -2.9347   -0.7194    0.0000 H   0  0  0  0  0  0  0  0  0  0  0  0
   -3.8461    1.0692    0.0000 H   0  0  0  0  0  0  0  0  0  0  0  0
   -1.0692    3.8461    0.0000 H   0  0  0  0  0  0  0  0  0  0  0  0
    0.7194    2.9347    0.0000 H   0  0  0  0  0  0  0  0  0  0  0  0
   -2.2071    0.3179    0.0000 H   0  0  0  0  0  0  0  0  0  0  0  0
   -1.4554   -0.6738    0.0000 H   0  0  0  0  0  0  0  0  0  0  0  0
  1  2  1  0
  2  3  1  0
  3  4  1  0
  4  5  1  0
  5  6  1  0
  6  7  1  0
  7  8  1  0
  7  9  1  0
  9 10  1  0
  3 11  1  0
 11 12  1  0
 12 13  1  0
 13 14  1  0
 14 15  1  0
 15 16  1  0
 15  2  1  0
 10  5  1  0
 15 11  1  0
 10  7  1  0
 16 13  1  0
  1 17  1  0
  2 18  1  0
  3 19  1  0
  4 20  1  0
  4 21  1  0
  5 22  1  0
  6 23  1  0
  6 24  1  0
  8 25  1  0
  9 26  1  0
  9 27  1  0
 10 28  1  0
 11 29  1  0
 12 30  1  0
 12 31  1  0
 14 32  1  0
 14 33  1  0
 16 34  1  0
 16 35  1  0
M  END
$$$$
