
     RDKit          2D

 93100  0  0  0  0  0  0  0  0999 V2000
   -6.7416    6.1963    0.0000 C   0  0  0  0  0  0  0  0  0  0  0  0
   -7.4916    4.8973    0.0000 N   0  0  0  0  0  0  0  0  0  0  0  0
   -6.7416    3.5983    0.0000 C   0  0  0  0  0  0  0  0  0  0  0  0
   -5.3321    4.1113    0.0000 C   0  0  0  0  0  0  0  0  0  0  0  0
   -3.8433    4.2941    0.0000 Cl  0  0  0  0  0  0  0  0  0  0  0  0
   -5.5926    2.6341    0.0000 C   0  0  0  0  0  0  0  0  0  0  0  0
   -6.3426    1.3350    0.0000 C   0  0  0  0  0  0  0  0  0  0  0  0
   -7.8426    1.3350    0.0000 C   0  0  0  0  0  0  0  0  0  0  0  0
   -8.5926    2.6341    0.0000 C   0  0  0  0  0  0  0  0  0  0  0  0
   -9.3426    3.9331    0.0000 C   0  0  0  0  0  0  0  0  0  0  0  0
   -8.1935    4.8973    0.0000 C   0  0  0  0  0  0  0  0  0  0  0  0
   -7.0444    5.8615    0.0000 N   0  0  0  0  0  0  0  0  0  0  0  0
  -10.4916    4.8973    0.0000 N   0  0  0  0  0  0  0  0  0  0  0  0
  -10.7521    3.4201    0.0000 C   0  0  0  0  0  0  0  0  0  0  0  0
  -12.2521    3.4201    0.0000 C   0  0  0  0  0  0  0  0  0  0  0  0
   -5.5926    0.0360    0.0000 C   0  0  0  0  0  0  0  0  0  0  0  0
   -4.8426   -1.2630    0.0000 C   0  0  0  0  0  0  0  0  0  0  0  0
   -5.9916   -2.2272    0.0000 C   0  0  0  0  0  0  0  0  0  0  0  0
   -7.1407   -3.1914    0.0000 C   0  0  0  0  0  0  0  0  0  0  0  0
   -8.2898   -4.1556    0.0000 C   0  0  0  0  0  0  0  0  0  0  0  0
   -6.1765   -4.3405    0.0000 C   0  0  0  0  0  0  0  0  0  0  0  0
   -5.2123   -5.4895    0.0000 N   0  0  0  0  0  2  0  0  0  0  0  0
   -7.1995   -5.4375    0.0000 O   0  0  0  0  0  1  0  0  0  0  0  0
   -3.6935   -2.2272    0.0000 C   0  0  0  0  0  0  0  0  0  0  0  0
   -4.1069   -3.6691    0.0000 Br  0  0  0  0  0  0  0  0  0  0  0  0
   -3.4330   -0.7500    0.0000 C   0  0  0  0  0  0  0  0  0  0  0  0
   -1.9330   -0.7500    0.0000 C   0  0  0  0  0  0  0  0  0  0  0  0
   -1.9330    0.7500    0.0000 C   0  0  0  0  0  0  0  0  0  0  0  0
   -0.4330    0.7500    0.0000 C   0  0  0  0  0  0  0  0  0  0  0  0
   -0.0448    2.1989    0.0000 N   0  0  0  0  0  0  0  0  0  0  0  0
    0.8660    0.0000    0.0000 C   0  0  0  0  0  0  0  0  0  0  0  0
   -0.4330   -0.7500    0.0000 C   0  0  0  0  0  0  0  0  0  0  0  0
   -3.6935    0.7272    0.0000 C   0  0  0  0  0  0  0  0  0  0  0  0
   -3.9540    2.2044    0.0000 C   0  0  0  0  0  0  0  0  0  0  0  0
   -4.9181    3.3535    0.0000 C   0  0  0  0  0  0  0  0  0  0  0  0
   -5.4312    1.9440    0.0000 C   0  0  0  0  0  0  0  0  0  0  0  0
   -5.1707    0.4667    0.0000 C   0  0  0  0  0  0  0  0  0  0  0  0
   -6.6479    0.2063    0.0000 C   0  0  0  0  0  0  0  0  0  0  0  0
   -6.3874   -1.2709    0.0000 O   0  0  0  0  0  0  0  0  0  0  0  0
   -7.8646   -1.5314    0.0000 O   0  0  0  0  0  0  0  0  0  0  0  0
   -8.1251   -0.0542    0.0000 S   0  0  0  0  0  4  0  0  0  0  0  0
   -8.3856    1.4230    0.0000 C   0  0  0  0  0  0  0  0  0  0  0  0
   -8.6461    2.9002    0.0000 O   0  0  0  0  0  0  0  0  0  0  0  0
  -10.0556    3.4132    0.0000 O   0  0  0  0  0  0  0  0  0  0  0  0
   -5.9916    7.4954    0.0000 H   0  0  0  0  0  0  0  0  0  0  0  0
   -7.9395    7.0991    0.0000 H   0  0  0  0  0  0  0  0  0  0  0  0
   -5.2997    5.7830    0.0000 H   0  0  0  0  0  0  0  0  0  0  0  0
   -8.9916    4.8973    0.0000 H   0  0  0  0  0  0  0  0  0  0  0  0
   -8.2089    3.2866    0.0000 H   0  0  0  0  0  0  0  0  0  0  0  0
   -5.2274    5.6076    0.0000 H   0  0  0  0  0  0  0  0  0  0  0  0
   -4.1008    2.4774    0.0000 H   0  0  0  0  0  0  0  0  0  0  0  0
   -8.8846    0.2561    0.0000 H   0  0  0  0  0  0  0  0  0  0  0  0
   -9.8916    1.8841    0.0000 H   0  0  0  0  0  0  0  0  0  0  0  0
   -7.3946    3.5368    0.0000 H   0  0  0  0  0  0  0  0  0  0  0  0
   -9.1577    6.0464    0.0000 H   0  0  0  0  0  0  0  0  0  0  0  0
   -7.3766    3.6393    0.0000 H   0  0  0  0  0  0  0  0  0  0  0  0
   -7.4830    7.2959    0.0000 H   0  0  0  0  0  0  0  0  0  0  0  0
   -5.6349    5.3485    0.0000 H   0  0  0  0  0  0  0  0  0  0  0  0
  -11.0046    6.3068    0.0000 H   0  0  0  0  0  0  0  0  0  0  0  0
  -10.6736    1.9221    0.0000 H   0  0  0  0  0  0  0  0  0  0  0  0
  -13.7521    3.4201    0.0000 H   0  0  0  0  0  0  0  0  0  0  0  0
  -12.2521    1.9201    0.0000 H   0  0  0  0  0  0  0  0  0  0  0  0
  -12.2521    4.9201    0.0000 H   0  0  0  0  0  0  0  0  0  0  0  0
   -4.6487    1.2018    0.0000 H   0  0  0  0  0  0  0  0  0  0  0  0
   -6.6715   -1.0060    0.0000 H   0  0  0  0  0  0  0  0  0  0  0  0
   -5.0274   -3.3763    0.0000 H   0  0  0  0  0  0  0  0  0  0  0  0
   -7.2052   -1.3456    0.0000 H   0  0  0  0  0  0  0  0  0  0  0  0
   -8.3543   -2.3098    0.0000 H   0  0  0  0  0  0  0  0  0  0  0  0
   -9.4388   -5.1198    0.0000 H   0  0  0  0  0  0  0  0  0  0  0  0
   -9.2539   -3.0065    0.0000 H   0  0  0  0  0  0  0  0  0  0  0  0
   -7.4728   -5.4136    0.0000 H   0  0  0  0  0  0  0  0  0  0  0  0
   -4.8283   -3.6830    0.0000 H   0  0  0  0  0  0  0  0  0  0  0  0
   -5.7254   -6.8991    0.0000 H   0  0  0  0  0  0  0  0  0  0  0  0
   -2.3570   -2.9082    0.0000 H   0  0  0  0  0  0  0  0  0  0  0  0
   -1.7502   -2.2388    0.0000 H   0  0  0  0  0  0  0  0  0  0  0  0
   -1.7502    2.2388    0.0000 H   0  0  0  0  0  0  0  0  0  0  0  0
   -3.3333    1.2877    0.0000 H   0  0  0  0  0  0  0  0  0  0  0  0
    1.4041    2.5871    0.0000 H   0  0  0  0  0  0  0  0  0  0  0  0
   -1.1054    3.2595    0.0000 H   0  0  0  0  0  0  0  0  0  0  0  0
    1.8302    1.1491    0.0000 H   0  0  0  0  0  0  0  0  0  0  0  0
    1.8302   -1.1491    0.0000 H   0  0  0  0  0  0  0  0  0  0  0  0
   -0.0448   -2.1989    0.0000 H   0  0  0  0  0  0  0  0  0  0  0  0
   -5.1707    0.4667    0.0000 H   0  0  0  0  0  0  0  0  0  0  0  0
   -2.6819    2.9993    0.0000 H   0  0  0  0  0  0  0  0  0  0  0  0
   -3.8211    4.3765    0.0000 H   0  0  0  0  0  0  0  0  0  0  0  0
   -5.9971    4.3955    0.0000 H   0  0  0  0  0  0  0  0  0  0  0  0
   -6.8984    2.2559    0.0000 H   0  0  0  0  0  0  0  0  0  0  0  0
   -5.2754   -1.0296    0.0000 H   0  0  0  0  0  0  0  0  0  0  0  0
   -6.0377   -1.1640    0.0000 H   0  0  0  0  0  0  0  0  0  0  0  0
   -9.6023   -0.3147    0.0000 H   0  0  0  0  0  0  0  0  0  0  0  0
   -7.0999    2.1957    0.0000 H   0  0  0  0  0  0  0  0  0  0  0  0
   -9.8200    0.9844    0.0000 H   0  0  0  0  0  0  0  0  0  0  0  0
  -10.6658    4.7835    0.0000 H   0  0  0  0  0  0  0  0  0  0  0  0
  1  2  1  0
  2  3  1  0
  3  4  1  0
  4  5  1  0
  4  6  1  0
  6  7  1  0
  7  8  2  3
  8  9  1  0
 10  9  1  1
 10 11  1  0
 11 12  1  0
 10 13  1  0
 13 14  1  0
 14 15  1  0
  7 16  1  0
 17 16  1  1
 17 18  1  0
 18 19  1  0
 19 20  1  0
 19 21  1  0
 21 22  1  0
 21 23  1  0
 17 24  1  0
 24 25  1  0
 24 26  1  0
 26 27  1  1
 27 28  1  0
 28 29  1  0
 29 30  1  6
 29 31  1  0
 31 32  1  0
 26 33  1  0
 33 34  1  0
 34 35  1  0
 35 36  1  0
 36 37  1  0
 37 38  1  0
 38 39  1  0
 39 40  1  0
 40 41  1  0
 41 42  1  0
 42 43  1  0
 43 44  1  0
  6  3  1  0
 14 10  1  0
 26 17  1  0
 32 27  1  0
 37 33  1  0
 41 38  1  0
 32 29  1  0
 36 34  1  0
  1 45  1  0
  1 46  1  0
  1 47  1  0
  2 48  1  0
  3 49  1  6
  4 50  1  1
  6 51  1  1
  8 52  1  0
  9 53  1  0
  9 54  1  0
 11 55  1  0
 11 56  1  0
 12 57  1  0
 12 58  1  0
 13 59  1  0
 14 60  1  1
 15 61  1  0
 15 62  1  0
 15 63  1  0
 16 64  1  0
 16 65  1  0
 18 66  1  0
 18 67  1  0
 19 68  1  6
 20 69  1  0
 20 70  1  0
 20 71  1  0
 21 72  1  1
 22 73  1  0
 24 74  1  6
 27 75  1  0
 28 76  1  0
 28 77  1  0
 30 78  1  0
 30 79  1  0
 31 80  1  0
 31 81  1  0
 32 82  1  1
 33 83  1  1
 34 84  1  6
 35 85  1  0
 35 86  1  0
 36 87  1  6
 37 88  1  1
 38 89  1  1
 41 90  1  1
 42 91  1  0
 42 92  1  0
 44 93  1  0
M  RAD  2  22   2  23   2
M  END
$$$$
