
     RDKit          2D

105115  0  0  0  0  0  0  0  0999 V2000
   -2.1279    5.4904    0.0000 C   0  0  0  0  0  0  0  0  0  0  0  0
   -3.6259    5.5689    0.0000 C   0  0  0  0  0  0  0  0  0  0  0  0
   -5.1238    5.6474    0.0000 C   0  0  0  0  0  0  0  0  0  0  0  0
   -3.7044    4.0710    0.0000 C   0  0  0  0  0  0  0  0  0  0  0  0
   -4.6484    2.9053    0.0000 C   0  0  0  0  0  0  0  0  0  0  0  0
   -4.7269    1.4073    0.0000 C   0  0  0  0  0  0  0  0  0  0  0  0
   -3.9099    0.1493    0.0000 C   0  0  0  0  0  0  0  0  0  0  0  0
   -5.3588   -0.2389    0.0000 C   0  0  0  0  0  0  0  0  0  0  0  0
   -6.8077   -0.6271    0.0000 C   0  0  0  0  0  0  0  0  0  0  0  0
   -8.2566   -1.0154    0.0000 C   0  0  0  0  0  0  0  0  0  0  0  0
   -9.7055   -1.4036    0.0000 C   0  0  0  0  0  0  0  0  0  0  0  0
  -11.1544   -1.7918    0.0000 C   0  0  0  0  0  0  0  0  0  0  0  0
  -12.6033   -2.1800    0.0000 C   0  0  0  0  0  0  0  0  0  0  0  0
  -12.9915   -3.6289    0.0000 C   0  0  0  0  0  0  0  0  0  0  0  0
  -14.0521   -2.5683    0.0000 C   0  0  0  0  0  0  0  0  0  0  0  0
  -15.5010   -2.1800    0.0000 C   0  0  0  0  0  0  0  0  0  0  0  0
  -15.1128   -0.7312    0.0000 C   0  0  0  0  0  0  0  0  0  0  0  0
  -13.6639   -1.1194    0.0000 C   0  0  0  0  0  0  0  0  0  0  0  0
   -2.5095   -0.3882    0.0000 C   0  0  0  0  0  0  0  0  0  0  0  0
   -2.8978   -1.8371    0.0000 C   0  0  0  0  0  0  0  0  0  0  0  0
   -3.7581   -3.0658    0.0000 C   0  0  0  0  0  0  0  0  0  0  0  0
   -1.8371   -2.8978    0.0000 C   0  0  0  0  0  0  0  0  0  0  0  0
   -3.1362   -3.6478    0.0000 P   0  0  0  0  0  0  0  0  0  0  0  0
   -3.1362   -5.1478    0.0000 Mg  0  0  0  0  0  2  0  0  0  0  0  0
   -3.1362   -6.6478    0.0000 O   0  0  0  0  0  0  0  0  0  0  0  0
   -1.4489   -4.3467    0.0000 C   0  0  0  0  0  0  0  0  0  0  0  0
   -0.0000   -3.9584    0.0000 C   0  0  0  0  0  0  0  0  0  0  0  0
    1.0607   -2.8978    0.0000 C   0  0  0  0  0  0  0  0  0  0  0  0
   -0.3882   -2.5095    0.0000 C   0  0  0  0  0  0  0  0  0  0  0  0
   -0.0000   -1.0607    0.0000 C   0  0  0  0  0  0  0  0  0  0  0  0
   -0.3393    0.0000    0.0000 Mg  0  0  0  0  0  2  0  0  0  0  0  0
    0.0000    1.0607    0.0000 C   0  0  0  0  0  0  0  0  0  0  0  0
    1.0055    0.1704    0.0000 C   0  0  0  0  0  0  0  0  0  0  0  0
   -0.1167    1.1657    0.0000 C   0  0  0  0  0  0  0  0  0  0  0  0
   -0.0382    2.6637    0.0000 C   0  0  0  0  0  0  0  0  0  0  0  0
   -0.8551    3.9217    0.0000 C   0  0  0  0  0  0  0  0  0  0  0  0
   -2.2555    4.4592    0.0000 C   0  0  0  0  0  0  0  0  0  0  0  0
    1.1819    3.5362    0.0000 C   0  0  0  0  0  0  0  0  0  0  0  0
    2.6248    3.1264    0.0000 C   0  0  0  0  0  0  0  0  0  0  0  0
    3.2040    1.7427    0.0000 C   0  0  0  0  0  0  0  0  0  0  0  0
    2.4834    0.4272    0.0000 N   0  0  0  0  0  0  0  0  0  0  0  0
    3.3559   -0.7929    0.0000 C   0  0  0  0  0  0  0  0  0  0  0  0
    4.2285   -2.0130    0.0000 C   0  0  0  0  0  0  0  0  0  0  0  0
    2.1359   -1.6655    0.0000 O   0  0  0  0  0  0  0  0  0  0  0  0
   -1.0607    0.0000    0.0000 C   0  0  0  0  0  0  0  0  0  0  0  0
   -0.6316    5.5951    0.0000 H   0  0  0  0  0  0  0  0  0  0  0  0
   -2.0494    6.9884    0.0000 H   0  0  0  0  0  0  0  0  0  0  0  0
   -1.8417    4.0180    0.0000 H   0  0  0  0  0  0  0  0  0  0  0  0
   -3.5474    7.0669    0.0000 H   0  0  0  0  0  0  0  0  0  0  0  0
   -6.6218    5.7259    0.0000 H   0  0  0  0  0  0  0  0  0  0  0  0
   -4.8633    7.1246    0.0000 H   0  0  0  0  0  0  0  0  0  0  0  0
   -5.2285    7.1438    0.0000 H   0  0  0  0  0  0  0  0  0  0  0  0
   -5.0288    4.7752    0.0000 H   0  0  0  0  0  0  0  0  0  0  0  0
   -5.6126    4.0543    0.0000 H   0  0  0  0  0  0  0  0  0  0  0  0
   -6.1338    2.6966    0.0000 H   0  0  0  0  0  0  0  0  0  0  0  0
   -6.1272    1.9449    0.0000 H   0  0  0  0  0  0  0  0  0  0  0  0
   -5.9249    0.5047    0.0000 H   0  0  0  0  0  0  0  0  0  0  0  0
   -4.1704   -1.3279    0.0000 H   0  0  0  0  0  0  0  0  0  0  0  0
   -5.3327   -1.7387    0.0000 H   0  0  0  0  0  0  0  0  0  0  0  0
   -5.9208    1.1519    0.0000 H   0  0  0  0  0  0  0  0  0  0  0  0
   -7.1959    0.8218    0.0000 H   0  0  0  0  0  0  0  0  0  0  0  0
   -6.4195   -2.0760    0.0000 H   0  0  0  0  0  0  0  0  0  0  0  0
   -7.8684   -2.4643    0.0000 H   0  0  0  0  0  0  0  0  0  0  0  0
   -8.6448    0.4335    0.0000 H   0  0  0  0  0  0  0  0  0  0  0  0
  -10.0937    0.0453    0.0000 H   0  0  0  0  0  0  0  0  0  0  0  0
   -9.3172   -2.8525    0.0000 H   0  0  0  0  0  0  0  0  0  0  0  0
  -10.7661   -3.2407    0.0000 H   0  0  0  0  0  0  0  0  0  0  0  0
  -11.5426   -0.3429    0.0000 H   0  0  0  0  0  0  0  0  0  0  0  0
  -11.6320   -4.2629    0.0000 H   0  0  0  0  0  0  0  0  0  0  0  0
  -13.8518   -4.8577    0.0000 H   0  0  0  0  0  0  0  0  0  0  0  0
  -16.9499   -1.7918    0.0000 H   0  0  0  0  0  0  0  0  0  0  0  0
  -15.8893   -3.6289    0.0000 H   0  0  0  0  0  0  0  0  0  0  0  0
  -14.7246    0.7177    0.0000 H   0  0  0  0  0  0  0  0  0  0  0  0
  -16.5617   -0.3429    0.0000 H   0  0  0  0  0  0  0  0  0  0  0  0
  -12.9139    0.1797    0.0000 H   0  0  0  0  0  0  0  0  0  0  0  0
   -1.6926   -1.6462    0.0000 H   0  0  0  0  0  0  0  0  0  0  0  0
   -4.3702   -1.5510    0.0000 H   0  0  0  0  0  0  0  0  0  0  0  0
   -4.6185   -4.2946    0.0000 H   0  0  0  0  0  0  0  0  0  0  0  0
   -4.9869   -2.2055    0.0000 H   0  0  0  0  0  0  0  0  0  0  0  0
   -2.9195   -4.3095    0.0000 H   0  0  0  0  0  0  0  0  0  0  0  0
   -4.6177   -3.4132    0.0000 H   0  0  0  0  0  0  0  0  0  0  0  0
   -1.8371   -7.3978    0.0000 H   0  0  0  0  0  0  0  0  0  0  0  0
   -1.0607   -5.7956    0.0000 H   0  0  0  0  0  0  0  0  0  0  0  0
   -2.6623   -5.2284    0.0000 H   0  0  0  0  0  0  0  0  0  0  0  0
    0.7500   -5.2575    0.0000 H   0  0  0  0  0  0  0  0  0  0  0  0
    2.1754   -3.9015    0.0000 H   0  0  0  0  0  0  0  0  0  0  0  0
    1.5241   -1.4712    0.0000 H   0  0  0  0  0  0  0  0  0  0  0  0
    1.0790   -2.1027    0.0000 H   0  0  0  0  0  0  0  0  0  0  0  0
    0.3630    2.5161    0.0000 H   0  0  0  0  0  0  0  0  0  0  0  0
    0.4228   -1.2118    0.0000 H   0  0  0  0  0  0  0  0  0  0  0  0
    0.3647   -0.2550    0.0000 H   0  0  0  0  0  0  0  0  0  0  0  0
    0.4183    4.0925    0.0000 H   0  0  0  0  0  0  0  0  0  0  0  0
    0.4568    4.6490    0.0000 H   0  0  0  0  0  0  0  0  0  0  0  0
   -0.5946    5.3989    0.0000 H   0  0  0  0  0  0  0  0  0  0  0  0
   -1.8169    5.8937    0.0000 H   0  0  0  0  0  0  0  0  0  0  0  0
    1.1072    5.0344    0.0000 H   0  0  0  0  0  0  0  0  0  0  0  0
    2.7033    4.6243    0.0000 H   0  0  0  0  0  0  0  0  0  0  0  0
    4.0604    3.5614    0.0000 H   0  0  0  0  0  0  0  0  0  0  0  0
    4.5214    2.4601    0.0000 H   0  0  0  0  0  0  0  0  0  0  0  0
    4.4392    0.8916    0.0000 H   0  0  0  0  0  0  0  0  0  0  0  0
    4.6733   -0.0756    0.0000 H   0  0  0  0  0  0  0  0  0  0  0  0
    5.1011   -3.2331    0.0000 H   0  0  0  0  0  0  0  0  0  0  0  0
    5.4486   -1.1404    0.0000 H   0  0  0  0  0  0  0  0  0  0  0  0
    3.1239   -3.0278    0.0000 H   0  0  0  0  0  0  0  0  0  0  0  0
    2.2815   -3.1584    0.0000 H   0  0  0  0  0  0  0  0  0  0  0  0
  1  2  1  0
  2  3  1  0
  2  4  1  0
  4  5  1  0
  5  6  1  0
  6  7  1  0
  7  8  1  0
  8  9  1  0
  9 10  1  0
 10 11  1  0
 11 12  1  0
 12 13  1  0
 13 14  1  0
 14 15  1  0
 15 16  1  0
 16 17  1  0
 17 18  1  0
  7 19  1  0
 19 20  1  0
 20 21  1  0
 20 22  1  0
 22 23  1  0
 23 24  1  0
 24 25  1  0
 22 26  1  0
 26 27  1  0
 27 28  1  0
 28 29  1  0
 29 30  1  0
 30 31  1  0
 31 32  1  0
 32 33  1  0
 33 34  1  0
 34 35  1  0
 35 36  1  0
 36 37  1  0
 37 38  1  0
 38 39  1  0
 39 40  1  0
 40 41  1  0
 41 42  1  0
 42 43  1  0
 42 44  1  0
 34 45  1  0
 37  4  1  0
 15 13  1  0
 45 19  1  0
 18 13  1  0
 29 22  1  0
 45 30  1  0
 18 15  1  0
 29 27  1  0
 45 32  1  0
 41 33  1  0
 38 35  1  0
  1 46  1  0
  1 47  1  0
  1 48  1  0
  2 49  1  0
  3 50  1  0
  3 51  1  0
  3 52  1  0
  4 53  1  0
  5 54  1  0
  5 55  1  0
  6 56  1  0
  6 57  1  0
  7 58  1  0
  8 59  1  0
  8 60  1  0
  9 61  1  0
  9 62  1  0
 10 63  1  0
 10 64  1  0
 11 65  1  0
 11 66  1  0
 12 67  1  0
 12 68  1  0
 14 69  1  0
 14 70  1  0
 16 71  1  0
 16 72  1  0
 17 73  1  0
 17 74  1  0
 18 75  1  0
 19 76  1  0
 20 77  1  0
 21 78  1  0
 21 79  1  0
 21 80  1  0
 23 81  1  0
 25 82  1  0
 26 83  1  0
 26 84  1  0
 27 85  1  0
 28 86  1  0
 28 87  1  0
 30 88  1  0
 32 89  1  0
 33 90  1  0
 34 91  1  0
 35 92  1  0
 36 93  1  0
 36 94  1  0
 37 95  1  0
 38 96  1  0
 39 97  1  0
 39 98  1  0
 40 99  1  0
 40100  1  0
 42101  1  0
 43102  1  0
 43103  1  0
 43104  1  0
 44105  1  0
M  END
$$$$
