
     RDKit          2D

 53 54  0  0  0  0  0  0  0  0999 V2000
   -0.4223    4.3515    0.0000 C   0  0  0  0  0  0  0  0  0  0  0  0
    1.0777    4.3515    0.0000 C   0  0  0  0  0  0  0  0  0  0  0  0
    2.5777    4.3515    0.0000 C   0  0  0  0  0  0  0  0  0  0  0  0
    4.0777    4.3515    0.0000 C   0  0  0  0  0  0  0  0  0  0  0  0
    5.5777    4.3515    0.0000 O   0  0  0  0  0  0  0  0  0  0  0  0
    6.3277    3.0524    0.0000 O   0  0  0  0  0  0  0  0  0  0  0  0
    7.8277    3.0524    0.0000 C   0  0  0  0  0  0  0  0  0  0  0  0
    9.3277    3.0524    0.0000 C   0  0  0  0  0  0  0  0  0  0  0  0
   10.8277    3.0524    0.0000 C   0  0  0  0  0  0  0  0  0  0  0  0
   11.0882    1.5752    0.0000 C   0  0  0  0  0  0  0  0  0  0  0  0
   12.2373    3.5654    0.0000 C   0  0  0  0  0  0  0  0  0  0  0  0
   11.0882    4.5296    0.0000 C   0  0  0  0  0  0  0  0  0  0  0  0
    1.0777    2.8515    0.0000 C   0  0  0  0  0  0  0  0  0  0  0  0
    1.0777    1.3515    0.0000 C   0  0  0  0  0  0  0  0  0  0  0  0
    1.7286    0.0000    0.0000 C   0  0  0  0  0  0  0  0  0  0  0  0
    1.0777   -1.3515    0.0000 O   0  0  0  0  0  0  0  0  0  0  0  0
   -0.3846   -1.6852    0.0000 C   0  0  0  0  0  0  0  0  0  0  0  0
   -1.5574   -0.7500    0.0000 O   0  0  0  0  0  0  0  0  0  0  0  0
   -1.5574    0.7500    0.0000 C   0  0  0  0  0  0  0  0  0  0  0  0
   -0.3846    1.6852    0.0000 C   0  0  0  0  0  0  0  0  0  0  0  0
   -1.5574    2.6205    0.0000 C   0  0  0  0  0  0  0  0  0  0  0  0
   -1.9223    4.3515    0.0000 H   0  0  0  0  0  0  0  0  0  0  0  0
   -0.4223    5.8515    0.0000 H   0  0  0  0  0  0  0  0  0  0  0  0
   -0.4223    3.5543    0.0000 H   0  0  0  0  0  0  0  0  0  0  0  0
    1.0777    5.8515    0.0000 H   0  0  0  0  0  0  0  0  0  0  0  0
    2.5777    5.8515    0.0000 H   0  0  0  0  0  0  0  0  0  0  0  0
    2.7606    2.8626    0.0000 H   0  0  0  0  0  0  0  0  0  0  0  0
    4.0777    5.8515    0.0000 H   0  0  0  0  0  0  0  0  0  0  0  0
    4.0777    2.8515    0.0000 H   0  0  0  0  0  0  0  0  0  0  0  0
    7.8277    4.5524    0.0000 H   0  0  0  0  0  0  0  0  0  0  0  0
    7.8277    1.5524    0.0000 H   0  0  0  0  0  0  0  0  0  0  0  0
    9.1632    4.3923    0.0000 H   0  0  0  0  0  0  0  0  0  0  0  0
    9.1796    1.8465    0.0000 H   0  0  0  0  0  0  0  0  0  0  0  0
   11.3487    0.0980    0.0000 H   0  0  0  0  0  0  0  0  0  0  0  0
    9.9263    1.2199    0.0000 H   0  0  0  0  0  0  0  0  0  0  0  0
   12.4364    1.6458    0.0000 H   0  0  0  0  0  0  0  0  0  0  0  0
   13.0498    2.4873    0.0000 H   0  0  0  0  0  0  0  0  0  0  0  0
   13.3864    4.5296    0.0000 H   0  0  0  0  0  0  0  0  0  0  0  0
   11.8382    5.8287    0.0000 H   0  0  0  0  0  0  0  0  0  0  0  0
    9.8854    5.1425    0.0000 H   0  0  0  0  0  0  0  0  0  0  0  0
    0.2806    2.8515    0.0000 H   0  0  0  0  0  0  0  0  0  0  0  0
    2.5666    2.6686    0.0000 H   0  0  0  0  0  0  0  0  0  0  0  0
    2.4885    1.8610    0.0000 H   0  0  0  0  0  0  0  0  0  0  0  0
    3.0066    0.7853    0.0000 H   0  0  0  0  0  0  0  0  0  0  0  0
    2.9013   -0.9352    0.0000 H   0  0  0  0  0  0  0  0  0  0  0  0
    0.2662   -3.0367    0.0000 H   0  0  0  0  0  0  0  0  0  0  0  0
   -1.5574   -2.6205    0.0000 H   0  0  0  0  0  0  0  0  0  0  0  0
   -3.0198    0.4162    0.0000 H   0  0  0  0  0  0  0  0  0  0  0  0
   -2.3681    2.0120    0.0000 H   0  0  0  0  0  0  0  0  0  0  0  0
    0.2662    3.0367    0.0000 H   0  0  0  0  0  0  0  0  0  0  0  0
   -2.7301    3.5557    0.0000 H   0  0  0  0  0  0  0  0  0  0  0  0
   -0.9337    3.9847    0.0000 H   0  0  0  0  0  0  0  0  0  0  0  0
   -2.6286    1.5705    0.0000 H   0  0  0  0  0  0  0  0  0  0  0  0
  1  2  1  0
  2  3  1  0
  3  4  1  0
  4  5  1  0
  5  6  1  0
  6  7  1  0
  7  8  1  0
  8  9  1  0
  9 10  1  0
  9 11  1  0
 11 12  1  0
  2 13  1  0
 13 14  1  0
 14 15  1  0
 15 16  1  0
 16 17  1  0
 17 18  1  0
 18 19  1  0
 19 20  1  0
 20 21  1  0
 12  9  1  0
 20 14  1  0
  1 22  1  0
  1 23  1  0
  1 24  1  0
  2 25  1  1
  3 26  1  0
  3 27  1  0
  4 28  1  0
  4 29  1  0
  7 30  1  0
  7 31  1  0
  8 32  1  0
  8 33  1  0
 10 34  1  0
 10 35  1  0
 10 36  1  0
 11 37  1  0
 11 38  1  0
 12 39  1  0
 12 40  1  0
 13 41  1  0
 13 42  1  0
 14 43  1  6
 15 44  1  0
 15 45  1  0
 17 46  1  0
 17 47  1  0
 19 48  1  0
 19 49  1  0
 20 50  1  6
 21 51  1  0
 21 52  1  0
 21 53  1  0
M  END
$$$$
