
     RDKit          2D

 46 51  0  0  0  0  0  0  0  0999 V2000
    2.7944    2.2981    0.0000 C   0  0  0  0  0  0  0  0  0  0  0  0
    1.8302    1.1491    0.0000 C   0  0  0  0  0  0  0  0  0  0  0  0
    0.8660    0.0000    0.0000 C   0  0  0  0  0  0  0  0  0  0  0  0
   -0.4330    0.7500    0.0000 C   0  0  0  0  0  0  0  0  0  0  0  0
   -0.4330   -0.7500    0.0000 C   0  0  0  0  0  0  0  0  0  0  0  0
   -1.7321   -1.5000    0.0000 C   0  0  0  0  0  0  0  0  0  0  0  0
   -3.0311   -0.7500    0.0000 C   0  0  0  0  0  0  0  0  0  0  0  0
   -4.3301    0.0000    0.0000 C   0  0  0  0  0  0  0  0  0  0  0  0
   -4.3301    1.5000    0.0000 C   0  0  0  0  0  0  0  0  0  0  0  0
   -3.0311    0.7500    0.0000 C   0  0  0  0  0  0  0  0  0  0  0  0
   -1.7321    1.5000    0.0000 C   0  0  0  0  0  0  0  0  0  0  0  0
   -0.7679    2.6491    0.0000 C   0  0  0  0  0  0  0  0  0  0  0  0
   -1.2809    4.0586    0.0000 C   0  0  0  0  0  0  0  0  0  0  0  0
   -0.3167    5.2077    0.0000 C   0  0  0  0  0  0  0  0  0  0  0  0
    1.1605    4.9472    0.0000 C   0  0  0  0  0  0  0  0  0  0  0  0
   -0.8297    6.6172    0.0000 C   0  0  0  0  0  0  0  0  0  0  0  0
    0.1344    7.7663    0.0000 C   0  0  0  0  0  0  0  0  0  0  0  0
   -0.8297    8.9153    0.0000 C   0  0  0  0  0  0  0  0  0  0  0  0
   -0.3167   10.3249    0.0000 N   0  0  0  0  0  0  0  0  0  0  0  0
    0.6475    9.1758    0.0000 C   0  0  0  0  0  0  0  0  0  0  0  0
    2.1247    9.4363    0.0000 O   0  0  0  0  0  0  0  0  0  0  0  0
    3.7586    3.4472    0.0000 H   0  0  0  0  0  0  0  0  0  0  0  0
    3.9435    1.3340    0.0000 H   0  0  0  0  0  0  0  0  0  0  0  0
    1.6622    3.0334    0.0000 H   0  0  0  0  0  0  0  0  0  0  0  0
    1.1875    2.0338    0.0000 H   0  0  0  0  0  0  0  0  0  0  0  0
    2.9793    0.1849    0.0000 H   0  0  0  0  0  0  0  0  0  0  0  0
    1.8302   -1.1491    0.0000 H   0  0  0  0  0  0  0  0  0  0  0  0
    0.1745    1.8022    0.0000 H   0  0  0  0  0  0  0  0  0  0  0  0
   -1.4751    0.3290    0.0000 H   0  0  0  0  0  0  0  0  0  0  0  0
   -2.6962   -2.6491    0.0000 H   0  0  0  0  0  0  0  0  0  0  0  0
   -0.7679   -2.6491    0.0000 H   0  0  0  0  0  0  0  0  0  0  0  0
   -3.7811   -2.0490    0.0000 H   0  0  0  0  0  0  0  0  0  0  0  0
   -5.6292   -0.7500    0.0000 H   0  0  0  0  0  0  0  0  0  0  0  0
   -5.8073    1.7605    0.0000 H   0  0  0  0  0  0  0  0  0  0  0  0
   -3.8171    2.9095    0.0000 H   0  0  0  0  0  0  0  0  0  0  0  0
   -2.6962    2.6491    0.0000 H   0  0  0  0  0  0  0  0  0  0  0  0
    0.3230    2.7254    0.0000 H   0  0  0  0  0  0  0  0  0  0  0  0
   -2.7581    4.3191    0.0000 H   0  0  0  0  0  0  0  0  0  0  0  0
    2.6377    4.6867    0.0000 H   0  0  0  0  0  0  0  0  0  0  0  0
    1.5552    6.2382    0.0000 H   0  0  0  0  0  0  0  0  0  0  0  0
    0.7658    3.6562    0.0000 H   0  0  0  0  0  0  0  0  0  0  0  0
   -2.3070    6.8777    0.0000 H   0  0  0  0  0  0  0  0  0  0  0  0
    1.3771    7.2388    0.0000 H   0  0  0  0  0  0  0  0  0  0  0  0
   -2.3070    8.6549    0.0000 H   0  0  0  0  0  0  0  0  0  0  0  0
   -0.5772   11.8021    0.0000 H   0  0  0  0  0  0  0  0  0  0  0  0
    2.6377   10.8458    0.0000 H   0  0  0  0  0  0  0  0  0  0  0  0
  1  2  1  0
  2  3  1  0
  3  4  1  0
  4  5  1  0
  5  6  1  0
  6  7  1  0
  7  8  1  0
  8  9  1  0
 10  9  1  6
 10 11  1  0
 11 12  1  0
 12 13  2  3
 13 14  1  0
 14 15  1  0
 14 16  2  3
 16 17  1  0
 17 18  1  0
 18 19  1  0
 19 20  1  0
 20 21  1  1
  5  3  1  0
 10  7  1  0
 20 17  1  0
 11  4  1  0
 20 18  1  0
 10  8  1  0
  1 22  1  0
  1 23  1  0
  1 24  1  0
  2 25  1  0
  2 26  1  0
  3 27  1  6
  4 28  1  6
  5 29  1  6
  6 30  1  0
  6 31  1  0
  7 32  1  6
  8 33  1  1
  9 34  1  0
  9 35  1  0
 11 36  1  6
 12 37  1  0
 13 38  1  0
 15 39  1  0
 15 40  1  0
 15 41  1  0
 16 42  1  0
 17 43  1  6
 18 44  1  6
 19 45  1  0
 21 46  1  0
M  END
$$$$
