
     RDKit          2D

 64 67  0  0  0  0  0  0  0  0999 V2000
    3.7586    3.4472    0.0000 C   0  0  0  0  0  0  0  0  0  0  0  0
    2.7944    2.2981    0.0000 C   0  0  0  0  0  0  0  0  0  0  0  0
    1.8302    1.1491    0.0000 C   0  0  0  0  0  0  0  0  0  0  0  0
    0.8660    0.0000    0.0000 C   0  0  0  0  0  0  0  0  0  0  0  0
   -0.4330    0.7500    0.0000 C   0  0  0  0  0  0  0  0  0  0  0  0
   -1.3972    1.8991    0.0000 O   0  0  0  0  0  0  0  0  0  0  0  0
   -2.8744    2.1595    0.0000 C   0  0  0  0  0  0  0  0  0  0  0  0
   -2.2012    3.5000    0.0000 C   0  0  0  0  0  0  0  0  0  0  0  0
   -1.0131    4.4156    0.0000 C   0  0  0  0  0  0  0  0  0  0  0  0
   -0.9881    5.9154    0.0000 C   0  0  0  0  0  0  0  0  0  0  0  0
   -2.1452    6.8700    0.0000 C   0  0  0  0  0  0  0  0  0  0  0  0
   -3.6129    6.5606    0.0000 C   0  0  0  0  0  0  0  0  0  0  0  0
   -3.8118    8.0473    0.0000 C   0  0  0  0  0  0  0  0  0  0  0  0
   -4.0107    9.5341    0.0000 C   0  0  0  0  0  0  0  0  0  0  0  0
   -4.2096   11.0208    0.0000 C   0  0  0  0  0  0  0  0  0  0  0  0
   -5.1104    6.4733    0.0000 C   0  0  0  0  0  0  0  0  0  0  0  0
   -4.2861    5.2201    0.0000 C   0  0  0  0  0  0  0  0  0  0  0  0
   -3.6578    3.8580    0.0000 C   0  0  0  0  0  0  0  0  0  0  0  0
   -4.1734    1.4095    0.0000 C   0  0  0  0  0  0  0  0  0  0  0  0
   -4.6865    0.0000    0.0000 C   0  0  0  0  0  0  0  0  0  0  0  0
   -4.1734   -1.4095    0.0000 C   0  0  0  0  0  0  0  0  0  0  0  0
   -2.8744   -2.1595    0.0000 C   0  0  0  0  0  0  0  0  0  0  0  0
   -1.3972   -1.8991    0.0000 C   0  0  0  0  0  0  0  0  0  0  0  0
   -0.4330   -0.7500    0.0000 C   0  0  0  0  0  0  0  0  0  0  0  0
    4.7228    4.5963    0.0000 H   0  0  0  0  0  0  0  0  0  0  0  0
    2.6095    4.4114    0.0000 H   0  0  0  0  0  0  0  0  0  0  0  0
    4.9076    2.4830    0.0000 H   0  0  0  0  0  0  0  0  0  0  0  0
    3.9435    1.3340    0.0000 H   0  0  0  0  0  0  0  0  0  0  0  0
    1.6453    3.2623    0.0000 H   0  0  0  0  0  0  0  0  0  0  0  0
    2.9793    0.1849    0.0000 H   0  0  0  0  0  0  0  0  0  0  0  0
    1.0845    1.9488    0.0000 H   0  0  0  0  0  0  0  0  0  0  0  0
    1.8302   -1.1491    0.0000 H   0  0  0  0  0  0  0  0  0  0  0  0
    0.1625    1.6671    0.0000 H   0  0  0  0  0  0  0  0  0  0  0  0
   -4.1821    2.8943    0.0000 H   0  0  0  0  0  0  0  0  0  0  0  0
   -1.1767    2.8468    0.0000 H   0  0  0  0  0  0  0  0  0  0  0  0
   -0.3735    3.3826    0.0000 H   0  0  0  0  0  0  0  0  0  0  0  0
    0.4814    4.5438    0.0000 H   0  0  0  0  0  0  0  0  0  0  0  0
    0.5013    5.7376    0.0000 H   0  0  0  0  0  0  0  0  0  0  0  0
   -0.1566    7.1638    0.0000 H   0  0  0  0  0  0  0  0  0  0  0  0
   -1.0775    7.9236    0.0000 H   0  0  0  0  0  0  0  0  0  0  0  0
   -2.3883    7.6292    0.0000 H   0  0  0  0  0  0  0  0  0  0  0  0
   -5.3117    8.0312    0.0000 H   0  0  0  0  0  0  0  0  0  0  0  0
   -3.0405    8.2485    0.0000 H   0  0  0  0  0  0  0  0  0  0  0  0
   -2.5239    9.7330    0.0000 H   0  0  0  0  0  0  0  0  0  0  0  0
   -5.4974    9.3352    0.0000 H   0  0  0  0  0  0  0  0  0  0  0  0
   -4.4084   12.5076    0.0000 H   0  0  0  0  0  0  0  0  0  0  0  0
   -5.6963   10.8220    0.0000 H   0  0  0  0  0  0  0  0  0  0  0  0
   -2.7228   11.2197    0.0000 H   0  0  0  0  0  0  0  0  0  0  0  0
   -5.6316    7.8799    0.0000 H   0  0  0  0  0  0  0  0  0  0  0  0
   -6.4877    5.8792    0.0000 H   0  0  0  0  0  0  0  0  0  0  0  0
   -5.5974    4.4918    0.0000 H   0  0  0  0  0  0  0  0  0  0  0  0
   -5.1256    3.5486    0.0000 H   0  0  0  0  0  0  0  0  0  0  0  0
   -3.8654    2.3725    0.0000 H   0  0  0  0  0  0  0  0  0  0  0  0
   -4.6947    2.8161    0.0000 H   0  0  0  0  0  0  0  0  0  0  0  0
   -5.6491    1.6786    0.0000 H   0  0  0  0  0  0  0  0  0  0  0  0
   -5.9899    0.7424    0.0000 H   0  0  0  0  0  0  0  0  0  0  0  0
   -5.9899   -0.7424    0.0000 H   0  0  0  0  0  0  0  0  0  0  0  0
   -5.6491   -1.6786    0.0000 H   0  0  0  0  0  0  0  0  0  0  0  0
   -4.6947   -2.8161    0.0000 H   0  0  0  0  0  0  0  0  0  0  0  0
   -3.8319   -3.3142    0.0000 H   0  0  0  0  0  0  0  0  0  0  0  0
   -2.3696   -3.5721    0.0000 H   0  0  0  0  0  0  0  0  0  0  0  0
   -1.3884   -3.3990    0.0000 H   0  0  0  0  0  0  0  0  0  0  0  0
   -0.1026   -2.6566    0.0000 H   0  0  0  0  0  0  0  0  0  0  0  0
    0.6640   -1.7730    0.0000 H   0  0  0  0  0  0  0  0  0  0  0  0
  1  2  1  0
  2  3  1  0
  3  4  1  0
  4  5  1  0
  5  6  1  0
  6  7  1  0
  7  8  1  0
  8  9  1  0
  9 10  1  0
 10 11  1  0
 11 12  1  0
 12 13  1  1
 13 14  1  0
 14 15  1  0
 12 16  1  0
 16 17  1  0
 17 18  1  0
  7 19  1  0
 19 20  1  0
 20 21  1  0
 21 22  1  0
 22 23  1  0
 23 24  1  0
 24  4  1  0
 24  5  1  0
 18  8  1  0
 17 12  1  0
  1 25  1  0
  1 26  1  0
  1 27  1  0
  2 28  1  0
  2 29  1  0
  3 30  1  0
  3 31  1  0
  4 32  1  6
  5 33  1  6
  7 34  1  6
  8 35  1  1
  9 36  1  0
  9 37  1  0
 10 38  1  0
 10 39  1  0
 11 40  1  0
 11 41  1  0
 13 42  1  0
 13 43  1  0
 14 44  1  0
 14 45  1  0
 15 46  1  0
 15 47  1  0
 15 48  1  0
 16 49  1  0
 16 50  1  0
 17 51  1  1
 18 52  1  0
 18 53  1  0
 19 54  1  0
 19 55  1  0
 20 56  1  0
 20 57  1  0
 21 58  1  0
 21 59  1  0
 22 60  1  0
 22 61  1  0
 23 62  1  0
 23 63  1  0
 24 64  1  6
M  END
$$$$
