
     RDKit          2D

 71 74  0  0  0  0  0  0  0  0999 V2000
    5.6915    2.7938    0.0000 C   0  0  0  0  0  0  0  0  0  0  0  0
    4.2426    3.1820    0.0000 C   0  0  0  0  0  0  0  0  0  0  0  0
    3.1820    2.1213    0.0000 C   0  0  0  0  0  0  0  0  0  0  0  0
    2.1213    1.0607    0.0000 C   0  0  0  0  0  0  0  0  0  0  0  0
    1.0607    2.1213    0.0000 O   0  0  0  0  0  0  0  0  0  0  0  0
    1.0607    0.0000    0.0000 C   0  0  0  0  0  0  0  0  0  0  0  0
   -0.0000   -1.0607    0.0000 C   0  0  0  0  0  0  0  0  0  0  0  0
   -1.4266   -0.5971    0.0000 C   0  0  0  0  0  0  0  0  0  0  0  0
   -1.4266    0.9029    0.0000 C   0  0  0  0  0  0  0  0  0  0  0  0
   -2.9184    0.7461    0.0000 C   0  0  0  0  0  0  0  0  0  0  0  0
   -4.4102    0.5893    0.0000 N   0  0  0  0  0  0  0  0  0  0  0  0
   -3.0752    2.2379    0.0000 O   0  0  0  0  0  0  0  0  0  0  0  0
   -4.4455    2.8480    0.0000 C   0  0  0  0  0  0  0  0  0  0  0  0
   -5.8158    3.4581    0.0000 C   0  0  0  0  0  0  0  0  0  0  0  0
   -7.1861    4.0682    0.0000 C   0  0  0  0  0  0  0  0  0  0  0  0
   -5.2057    4.8284    0.0000 C   0  0  0  0  0  0  0  0  0  0  0  0
   -4.5956    6.1987    0.0000 C   0  0  0  0  0  0  0  0  0  0  0  0
   -3.9855    7.5690    0.0000 C   0  0  0  0  0  0  0  0  0  0  0  0
   -3.2253    5.5886    0.0000 C   0  0  0  0  0  0  0  0  0  0  0  0
   -1.8550    4.9785    0.0000 C   0  0  0  0  0  0  0  0  0  0  0  0
   -2.4651    3.6082    0.0000 C   0  0  0  0  0  0  0  0  0  0  0  0
   -1.2448    6.3488    0.0000 C   0  0  0  0  0  0  0  0  0  0  0  0
    0.1255    5.7387    0.0000 C   0  0  0  0  0  0  0  0  0  0  0  0
    1.0072    4.5252    0.0000 C   0  0  0  0  0  0  0  0  0  0  0  0
    2.3553    5.1827    0.0000 C   0  0  0  0  0  0  0  0  0  0  0  0
   -0.4846    4.3684    0.0000 C   0  0  0  0  0  0  0  0  0  0  0  0
    0.0000    1.0607    0.0000 C   0  0  0  0  0  0  0  0  0  0  0  0
   -1.0607    0.0000    0.0000 C   0  0  0  0  0  0  0  0  0  0  0  0
    6.7522    3.8544    0.0000 H   0  0  0  0  0  0  0  0  0  0  0  0
    6.0798    1.3449    0.0000 H   0  0  0  0  0  0  0  0  0  0  0  0
    3.8544    4.6309    0.0000 H   0  0  0  0  0  0  0  0  0  0  0  0
    1.9999    3.0448    0.0000 H   0  0  0  0  0  0  0  0  0  0  0  0
    4.2426    1.0607    0.0000 H   0  0  0  0  0  0  0  0  0  0  0  0
    3.1820    0.0000    0.0000 H   0  0  0  0  0  0  0  0  0  0  0  0
   -0.4391    2.0952    0.0000 H   0  0  0  0  0  0  0  0  0  0  0  0
    2.1213   -1.0607    0.0000 H   0  0  0  0  0  0  0  0  0  0  0  0
   -0.0000   -2.5607    0.0000 H   0  0  0  0  0  0  0  0  0  0  0  0
   -1.7385   -2.0644    0.0000 H   0  0  0  0  0  0  0  0  0  0  0  0
   -2.2236   -0.6111    0.0000 H   0  0  0  0  0  0  0  0  0  0  0  0
   -1.5573    2.3972    0.0000 H   0  0  0  0  0  0  0  0  0  0  0  0
   -3.0294   -0.0433    0.0000 H   0  0  0  0  0  0  0  0  0  0  0  0
   -5.4332    1.6863    0.0000 H   0  0  0  0  0  0  0  0  0  0  0  0
   -5.0203   -0.7810    0.0000 H   0  0  0  0  0  0  0  0  0  0  0  0
   -5.2181    1.5622    0.0000 H   0  0  0  0  0  0  0  0  0  0  0  0
   -3.8354    4.2183    0.0000 H   0  0  0  0  0  0  0  0  0  0  0  0
   -6.4259    2.0877    0.0000 H   0  0  0  0  0  0  0  0  0  0  0  0
   -8.5564    4.6783    0.0000 H   0  0  0  0  0  0  0  0  0  0  0  0
   -7.7962    2.6979    0.0000 H   0  0  0  0  0  0  0  0  0  0  0  0
   -6.7476    5.5026    0.0000 H   0  0  0  0  0  0  0  0  0  0  0  0
   -6.4914    5.6010    0.0000 H   0  0  0  0  0  0  0  0  0  0  0  0
   -3.7285    4.5680    0.0000 H   0  0  0  0  0  0  0  0  0  0  0  0
   -5.9659    6.8088    0.0000 H   0  0  0  0  0  0  0  0  0  0  0  0
   -3.3754    8.9393    0.0000 H   0  0  0  0  0  0  0  0  0  0  0  0
   -5.2712    8.3416    0.0000 H   0  0  0  0  0  0  0  0  0  0  0  0
   -5.4200    8.0075    0.0000 H   0  0  0  0  0  0  0  0  0  0  0  0
   -2.4527    6.8743    0.0000 H   0  0  0  0  0  0  0  0  0  0  0  0
   -2.7867    7.0231    0.0000 H   0  0  0  0  0  0  0  0  0  0  0  0
   -2.7254    2.1309    0.0000 H   0  0  0  0  0  0  0  0  0  0  0  0
   -3.6470    4.5317    0.0000 H   0  0  0  0  0  0  0  0  0  0  0  0
   -1.0947    2.9981    0.0000 H   0  0  0  0  0  0  0  0  0  0  0  0
   -0.6347    7.7191    0.0000 H   0  0  0  0  0  0  0  0  0  0  0  0
    0.2324    6.0884    0.0000 H   0  0  0  0  0  0  0  0  0  0  0  0
    0.9203    7.0108    0.0000 H   0  0  0  0  0  0  0  0  0  0  0  0
    1.2418    3.0436    0.0000 H   0  0  0  0  0  0  0  0  0  0  0  0
    3.7035    5.8403    0.0000 H   0  0  0  0  0  0  0  0  0  0  0  0
    1.8670    6.6010    0.0000 H   0  0  0  0  0  0  0  0  0  0  0  0
    3.0129    3.8345    0.0000 H   0  0  0  0  0  0  0  0  0  0  0  0
   -0.3538    2.8741    0.0000 H   0  0  0  0  0  0  0  0  0  0  0  0
    0.1828    2.5495    0.0000 H   0  0  0  0  0  0  0  0  0  0  0  0
   -1.9841   -1.1820    0.0000 H   0  0  0  0  0  0  0  0  0  0  0  0
   -2.3465    0.7725    0.0000 H   0  0  0  0  0  0  0  0  0  0  0  0
  1  2  2  3
  2  3  1  0
  3  4  1  0
  4  5  1  0
  4  6  1  0
  6  7  1  0
  7  8  1  0
  8  9  1  0
  9 10  1  0
 10 11  1  0
 10 12  1  0
 12 13  1  0
 13 14  1  0
 14 15  1  0
 14 16  1  0
 16 17  1  0
 17 18  1  0
 17 19  1  0
 19 20  1  0
 20 21  1  0
 20 22  1  0
 22 23  1  0
 23 24  1  0
 24 25  1  0
 24 26  1  0
  9 27  1  0
 27 28  1  0
 27  6  1  0
 28  7  1  0
 26 20  1  0
 26 23  1  0
  1 29  1  0
  1 30  1  0
  2 31  1  0
  3 32  1  0
  3 33  1  0
  4 34  1  0
  5 35  1  0
  6 36  1  0
  7 37  1  0
  8 38  1  0
  8 39  1  0
  9 40  1  0
 10 41  1  0
 11 42  1  0
 11 43  1  0
 13 44  1  0
 13 45  1  0
 14 46  1  0
 15 47  1  0
 15 48  1  0
 15 49  1  0
 16 50  1  0
 16 51  1  0
 17 52  1  0
 18 53  1  0
 18 54  1  0
 18 55  1  0
 19 56  1  0
 19 57  1  0
 21 58  1  0
 21 59  1  0
 21 60  1  0
 22 61  1  0
 22 62  1  0
 23 63  1  0
 24 64  1  0
 25 65  1  0
 25 66  1  0
 25 67  1  0
 26 68  1  0
 27 69  1  0
 28 70  1  0
 28 71  1  0
M  END
$$$$
