
     RDKit          2D

107112  0  0  0  0  0  0  0  0999 V2000
    8.5848   -1.6072    0.0000 C   0  0  0  0  0  0  0  0  0  0  0  0
    7.1583   -2.0707    0.0000 C   0  0  0  0  0  0  0  0  0  0  0  0
    6.8464   -3.5379    0.0000 C   0  0  0  0  0  0  0  0  0  0  0  0
    6.5345   -5.0051    0.0000 C   0  0  0  0  0  0  0  0  0  0  0  0
    6.2226   -6.4724    0.0000 C   0  0  0  0  0  0  0  0  0  0  0  0
    4.7554   -6.1605    0.0000 C   0  0  0  0  0  0  0  0  0  0  0  0
    4.4436   -7.6277    0.0000 C   0  0  0  0  0  0  0  0  0  0  0  0
    4.1317   -9.0949    0.0000 C   0  0  0  0  0  0  0  0  0  0  0  0
    5.9108   -7.9396    0.0000 N   0  0  0  0  0  0  0  0  0  0  0  0
    2.9763   -7.3158    0.0000 C   0  0  0  0  0  0  0  0  0  0  0  0
    1.5091   -7.0040    0.0000 C   0  0  0  0  0  0  0  0  0  0  0  0
    0.0419   -6.6921    0.0000 C   0  0  0  0  0  0  0  0  0  0  0  0
    3.2882   -5.8486    0.0000 O   0  0  0  0  0  0  0  0  0  0  0  0
    2.1735   -4.8449    0.0000 C   0  0  0  0  0  0  0  0  0  0  0  0
    1.0588   -3.8412    0.0000 C   0  0  0  0  0  0  0  0  0  0  0  0
   -0.3678   -4.3048    0.0000 C   0  0  0  0  0  0  0  0  0  0  0  0
    1.3706   -2.3740    0.0000 C   0  0  0  0  0  0  0  0  0  0  0  0
    1.9807   -1.0037    0.0000 C   0  0  0  0  0  0  0  0  0  0  0  0
    0.8660    0.0000    0.0000 C   0  0  0  0  0  0  0  0  0  0  0  0
   -0.4330    0.7500    0.0000 C   0  0  0  0  0  0  0  0  0  0  0  0
   -1.9330    0.7500    0.0000 C   0  0  0  0  0  0  0  0  0  0  0  0
   -3.4330    0.7500    0.0000 C   0  0  0  0  0  0  0  0  0  0  0  0
   -4.9330    0.7500    0.0000 C   0  0  0  0  0  0  0  0  0  0  0  0
   -3.4330    2.2500    0.0000 C   0  0  0  0  0  0  0  0  0  0  0  0
   -3.4330    3.7500    0.0000 C   0  0  0  0  0  0  0  0  0  0  0  0
   -4.9330    2.2500    0.0000 C   0  0  0  0  0  0  0  0  0  0  0  0
   -6.4330    2.2500    0.0000 C   0  0  0  0  0  0  0  0  0  0  0  0
   -6.4330    3.7500    0.0000 C   0  0  0  0  0  0  0  0  0  0  0  0
   -7.9330    3.7500    0.0000 C   0  0  0  0  0  0  0  0  0  0  0  0
   -7.9330    2.2500    0.0000 C   0  0  0  0  0  0  0  0  0  0  0  0
   -9.2031    3.0480    0.0000 N   0  0  0  0  0  0  0  0  0  0  0  0
   -9.3710    4.5386    0.0000 C   0  0  0  0  0  0  0  0  0  0  0  0
  -10.7869    4.0432    0.0000 C   0  0  0  0  0  0  0  0  0  0  0  0
   -8.3104    5.5993    0.0000 C   0  0  0  0  0  0  0  0  0  0  0  0
   -9.5805    6.3973    0.0000 O   0  0  0  0  0  0  0  0  0  0  0  0
   -9.5244    7.8963    0.0000 C   0  0  0  0  0  0  0  0  0  0  0  0
   -9.4683    9.3952    0.0000 C   0  0  0  0  0  0  0  0  0  0  0  0
   -9.4122   10.8942    0.0000 C   0  0  0  0  0  0  0  0  0  0  0  0
   -7.9693    9.3391    0.0000 O   0  0  0  0  0  0  0  0  0  0  0  0
   -6.8198    5.4313    0.0000 C   0  0  0  0  0  0  0  0  0  0  0  0
   -1.9330   -0.7500    0.0000 C   0  0  0  0  0  0  0  0  0  0  0  0
   -0.4330   -0.7500    0.0000 C   0  0  0  0  0  0  0  0  0  0  0  0
   -0.1211   -2.2172    0.0000 O   0  0  0  0  0  0  0  0  0  0  0  0
    5.0673   -4.6933    0.0000 N   0  0  0  0  0  0  0  0  0  0  0  0
    8.8967   -0.1400    0.0000 H   0  0  0  0  0  0  0  0  0  0  0  0
    9.6996   -2.6109    0.0000 H   0  0  0  0  0  0  0  0  0  0  0  0
    6.0435   -1.0670    0.0000 H   0  0  0  0  0  0  0  0  0  0  0  0
    5.3792   -3.2261    0.0000 H   0  0  0  0  0  0  0  0  0  0  0  0
    8.3136   -3.8498    0.0000 H   0  0  0  0  0  0  0  0  0  0  0  0
    8.0017   -5.3170    0.0000 H   0  0  0  0  0  0  0  0  0  0  0  0
    7.7169   -6.6031    0.0000 H   0  0  0  0  0  0  0  0  0  0  0  0
    6.2505   -7.2690    0.0000 H   0  0  0  0  0  0  0  0  0  0  0  0
    3.4073   -5.5029    0.0000 H   0  0  0  0  0  0  0  0  0  0  0  0
    3.8198  -10.5622    0.0000 H   0  0  0  0  0  0  0  0  0  0  0  0
    5.5500   -9.5833    0.0000 H   0  0  0  0  0  0  0  0  0  0  0  0
    2.6374   -8.9642    0.0000 H   0  0  0  0  0  0  0  0  0  0  0  0
    6.5447   -9.2990    0.0000 H   0  0  0  0  0  0  0  0  0  0  0  0
    7.2473   -7.2587    0.0000 H   0  0  0  0  0  0  0  0  0  0  0  0
    2.4879   -8.7341    0.0000 H   0  0  0  0  0  0  0  0  0  0  0  0
    1.1972   -8.4712    0.0000 H   0  0  0  0  0  0  0  0  0  0  0  0
    1.2743   -5.5225    0.0000 H   0  0  0  0  0  0  0  0  0  0  0  0
   -1.4253   -6.3802    0.0000 H   0  0  0  0  0  0  0  0  0  0  0  0
    0.3538   -5.2249    0.0000 H   0  0  0  0  0  0  0  0  0  0  0  0
   -0.2700   -8.1593    0.0000 H   0  0  0  0  0  0  0  0  0  0  0  0
    1.0414   -5.8290    0.0000 H   0  0  0  0  0  0  0  0  0  0  0  0
    3.1772   -3.7302    0.0000 H   0  0  0  0  0  0  0  0  0  0  0  0
   -0.6797   -5.7720    0.0000 H   0  0  0  0  0  0  0  0  0  0  0  0
   -1.4825   -3.3011    0.0000 H   0  0  0  0  0  0  0  0  0  0  0  0
    2.7972   -2.8375    0.0000 H   0  0  0  0  0  0  0  0  0  0  0  0
    3.2798   -1.7537    0.0000 H   0  0  0  0  0  0  0  0  0  0  0  0
    2.8624    0.2098    0.0000 H   0  0  0  0  0  0  0  0  0  0  0  0
    1.7477    1.2135    0.0000 H   0  0  0  0  0  0  0  0  0  0  0  0
   -0.0448    2.1989    0.0000 H   0  0  0  0  0  0  0  0  0  0  0  0
   -1.7502    2.2388    0.0000 H   0  0  0  0  0  0  0  0  0  0  0  0
   -3.6159   -0.7388    0.0000 H   0  0  0  0  0  0  0  0  0  0  0  0
   -6.4218    0.5672    0.0000 H   0  0  0  0  0  0  0  0  0  0  0  0
   -5.2960    2.2054    0.0000 H   0  0  0  0  0  0  0  0  0  0  0  0
   -4.9330   -0.7500    0.0000 H   0  0  0  0  0  0  0  0  0  0  0  0
   -1.9442    2.4328    0.0000 H   0  0  0  0  0  0  0  0  0  0  0  0
   -3.4330    5.2500    0.0000 H   0  0  0  0  0  0  0  0  0  0  0  0
   -4.9218    3.9328    0.0000 H   0  0  0  0  0  0  0  0  0  0  0  0
   -1.9330    3.7500    0.0000 H   0  0  0  0  0  0  0  0  0  0  0  0
   -5.1159    3.7388    0.0000 H   0  0  0  0  0  0  0  0  0  0  0  0
   -5.2960    0.7946    0.0000 H   0  0  0  0  0  0  0  0  0  0  0  0
   -6.6159    0.7612    0.0000 H   0  0  0  0  0  0  0  0  0  0  0  0
   -5.3724    4.8107    0.0000 H   0  0  0  0  0  0  0  0  0  0  0  0
   -9.2574    4.4544    0.0000 H   0  0  0  0  0  0  0  0  0  0  0  0
   -8.2960    5.2054    0.0000 H   0  0  0  0  0  0  0  0  0  0  0  0
   -8.9937    1.1893    0.0000 H   0  0  0  0  0  0  0  0  0  0  0  0
  -10.3664    2.1011    0.0000 H   0  0  0  0  0  0  0  0  0  0  0  0
  -10.4527    5.5779    0.0000 H   0  0  0  0  0  0  0  0  0  0  0  0
  -12.2027    3.5478    0.0000 H   0  0  0  0  0  0  0  0  0  0  0  0
  -11.2823    5.4590    0.0000 H   0  0  0  0  0  0  0  0  0  0  0  0
  -10.4677    2.5775    0.0000 H   0  0  0  0  0  0  0  0  0  0  0  0
   -7.8150    7.0151    0.0000 H   0  0  0  0  0  0  0  0  0  0  0  0
   -8.0298    8.0233    0.0000 H   0  0  0  0  0  0  0  0  0  0  0  0
  -11.0233    7.9524    0.0000 H   0  0  0  0  0  0  0  0  0  0  0  0
  -10.9672    9.4513    0.0000 H   0  0  0  0  0  0  0  0  0  0  0  0
   -9.3561   12.3931    0.0000 H   0  0  0  0  0  0  0  0  0  0  0  0
  -10.9112   10.9503    0.0000 H   0  0  0  0  0  0  0  0  0  0  0  0
   -7.9176   11.0212    0.0000 H   0  0  0  0  0  0  0  0  0  0  0  0
   -7.0224   10.5025    0.0000 H   0  0  0  0  0  0  0  0  0  0  0  0
   -6.8048    6.9313    0.0000 H   0  0  0  0  0  0  0  0  0  0  0  0
   -5.4040    5.9267    0.0000 H   0  0  0  0  0  0  0  0  0  0  0  0
   -1.9330   -2.2500    0.0000 H   0  0  0  0  0  0  0  0  0  0  0  0
   -3.4218   -0.9328    0.0000 H   0  0  0  0  0  0  0  0  0  0  0  0
    4.2503   -3.4353    0.0000 H   0  0  0  0  0  0  0  0  0  0  0  0
  1  2  2  3
  2  3  1  0
  3  4  1  0
  4  5  1  0
  5  6  1  0
  6  7  1  0
  7  8  1  0
  7  9  1  0
  7 10  1  0
 10 11  1  0
 11 12  1  0
 10 13  1  0
 13 14  1  0
 14 15  1  0
 15 16  2  3
 15 17  1  0
 17 18  1  0
 18 19  1  0
 19 20  1  0
 20 21  1  0
 21 22  1  0
 22 23  1  0
 22 24  1  0
 24 25  1  0
 24 26  1  0
 26 27  1  0
 27 28  1  0
 28 29  1  0
 29 30  1  0
 30 31  1  0
 31 32  1  0
 32 33  1  0
 32 34  1  0
 34 35  1  0
 35 36  1  0
 36 37  1  0
 37 38  1  0
 37 39  1  0
 34 40  1  0
 21 41  1  0
 41 42  1  0
 42 43  1  0
  6 44  1  0
 44  4  1  0
 43 17  1  0
 42 19  1  0
 42 20  1  0
 30 27  1  0
 40 28  1  0
  1 45  1  0
  1 46  1  0
  2 47  1  0
  3 48  1  0
  3 49  1  0
  4 50  1  0
  5 51  1  0
  5 52  1  0
  6 53  1  0
  8 54  1  0
  8 55  1  0
  8 56  1  0
  9 57  1  0
  9 58  1  0
 10 59  1  0
 11 60  1  0
 11 61  1  0
 12 62  1  0
 12 63  1  0
 12 64  1  0
 14 65  1  0
 14 66  1  0
 16 67  1  0
 16 68  1  0
 17 69  1  0
 18 70  1  0
 18 71  1  0
 19 72  1  0
 20 73  1  0
 21 74  1  0
 22 75  1  0
 23 76  1  0
 23 77  1  0
 23 78  1  0
 24 79  1  0
 25 80  1  0
 25 81  1  0
 25 82  1  0
 26 83  1  0
 26 84  1  0
 27 85  1  0
 28 86  1  0
 29 87  1  0
 29 88  1  0
 30 89  1  0
 31 90  1  0
 32 91  1  0
 33 92  1  0
 33 93  1  0
 33 94  1  0
 34 95  1  0
 36 96  1  0
 36 97  1  0
 37 98  1  0
 38 99  1  0
 38100  1  0
 38101  1  0
 39102  1  0
 40103  1  0
 40104  1  0
 41105  1  0
 41106  1  0
 44107  1  0
M  END
$$$$
