
     RDKit          2D

 16 17  0  0  0  0  0  0  0  0999 V2000
    2.1806    5.4849    0.0000 O   0  0  0  0  0  0  0  0  0  0  0  0
    1.7923    4.0360    0.0000 C   0  0  0  0  0  0  0  0  0  0  0  0
    0.3434    3.6478    0.0000 O   0  0  0  0  0  0  0  0  0  0  0  0
   -0.0448    2.1989    0.0000 C   0  0  0  0  0  0  0  0  0  0  0  0
   -0.4330    0.7500    0.0000 C   0  0  0  0  0  0  0  0  0  0  0  0
    0.8660    0.0000    0.0000 S   0  0  0  0  0  0  0  0  0  0  0  0
   -0.4330   -0.7500    0.0000 C   0  0  0  0  0  0  0  0  0  0  0  0
   -1.9330   -0.7500    0.0000 O   0  0  0  0  0  0  0  0  0  0  0  0
   -1.9330    0.7500    0.0000 C   0  0  0  0  0  0  0  0  0  0  0  0
   -1.9330    2.2500    0.0000 O   0  0  0  0  0  0  0  0  0  0  0  0
    2.8530    2.9753    0.0000 H   0  0  0  0  0  0  0  0  0  0  0  0
    1.4041    1.8107    0.0000 H   0  0  0  0  0  0  0  0  0  0  0  0
   -1.2255    2.8534    0.0000 H   0  0  0  0  0  0  0  0  0  0  0  0
   -0.0448   -2.1989    0.0000 H   0  0  0  0  0  0  0  0  0  0  0  0
   -3.4330    0.7500    0.0000 H   0  0  0  0  0  0  0  0  0  0  0  0
   -3.2321    3.0000    0.0000 H   0  0  0  0  0  0  0  0  0  0  0  0
  1  2  2  0
  2  3  1  0
  3  4  1  0
  4  5  1  0
  5  6  1  0
  6  7  1  0
  7  8  1  0
  8  9  1  0
  9 10  1  0
  7  5  1  0
  9  5  1  0
  2 11  1  0
  4 12  1  0
  4 13  1  0
  7 14  1  0
  9 15  1  0
 10 16  1  0
M  END
$$$$
