
     RDKit          2D

 99107  0  0  0  0  0  0  0  0999 V2000
    2.7938    3.5702    0.0000 C   0  0  0  0  0  0  0  0  0  0  0  0
    3.1820    2.1213    0.0000 C   0  0  0  0  0  0  0  0  0  0  0  0
    2.1213    1.0607    0.0000 C   0  0  0  0  0  0  0  0  0  0  0  0
    1.0607    0.0000    0.0000 C   0  0  0  0  0  0  0  0  0  0  0  0
   -0.0000   -1.0607    0.0000 C   0  0  0  0  0  0  0  0  0  0  0  0
    1.0607   -2.8978    0.0000 O   0  0  0  0  0  0  0  0  0  0  0  0
    2.5095   -3.2860    0.0000 C   0  0  0  0  0  0  0  0  0  0  0  0
    3.9584   -2.8978    0.0000 C   0  0  0  0  0  0  0  0  0  0  0  0
    5.3179   -3.5317    0.0000 S   0  0  0  0  0  3  0  0  0  0  0  0
    6.5466   -2.6713    0.0000 O   0  0  0  0  0  0  0  0  0  0  0  0
    7.9061   -3.3053    0.0000 C   0  0  0  0  0  0  0  0  0  0  0  0
    9.2656   -3.9392    0.0000 C   0  0  0  0  0  0  0  0  0  0  0  0
   10.1259   -2.7105    0.0000 C   0  0  0  0  0  0  0  0  0  0  0  0
   10.3262   -4.9999    0.0000 C   0  0  0  0  0  0  0  0  0  0  0  0
    8.8773   -5.3881    0.0000 C   0  0  0  0  0  0  0  0  0  0  0  0
    7.3830   -5.2574    0.0000 O   0  0  0  0  0  0  0  0  0  0  0  0
    9.0081   -6.8824    0.0000 C   0  0  0  0  0  0  0  0  0  0  0  0
    9.1388   -8.3767    0.0000 F   0  0  0  0  0  0  0  0  0  0  0  0
    5.4486   -5.0260    0.0000 C   0  0  0  0  0  0  0  0  0  0  0  0
    3.9543   -5.1567    0.0000 N   0  0  0  0  0  2  0  0  0  0  0  0
    4.0851   -6.6510    0.0000 C   0  0  0  0  0  0  0  0  0  0  0  0
    4.2158   -8.1453    0.0000 N   0  0  0  0  0  0  0  0  0  0  0  0
    5.7101   -8.0146    0.0000 C   0  0  0  0  0  0  0  0  0  0  0  0
    5.5794   -6.5203    0.0000 C   0  0  0  0  0  0  0  0  0  0  0  0
    5.0191   -1.8371    0.0000 C   0  0  0  0  0  0  0  0  0  0  0  0
    5.4073   -0.3882    0.0000 C   0  0  0  0  0  0  0  0  0  0  0  0
    6.7822   -0.9881    0.0000 C   0  0  0  0  0  0  0  0  0  0  0  0
    8.1083   -0.2872    0.0000 C   0  0  0  0  0  0  0  0  0  0  0  0
    8.7082   -1.6620    0.0000 C   0  0  0  0  0  0  0  0  0  0  0  0
    9.5242    0.2083    0.0000 C   0  0  0  0  0  0  0  0  0  0  0  0
    8.3872    1.1867    0.0000 C   0  0  0  0  0  0  0  0  0  0  0  0
    7.4088    2.3236    0.0000 C   0  0  0  0  0  0  0  0  0  0  0  0
    8.7350    3.0245    0.0000 C   0  0  0  0  0  0  0  0  0  0  0  0
   10.0611    3.7254    0.0000 C   0  0  0  0  0  0  0  0  0  0  0  0
    5.9098    2.2676    0.0000 C   0  0  0  0  0  0  0  0  0  0  0  0
    5.0191    1.0607    0.0000 C   0  0  0  0  0  0  0  0  0  0  0  0
    3.9584    2.1213    0.0000 C   0  0  0  0  0  0  0  0  0  0  0  0
    3.5702    3.5702    0.0000 C   0  0  0  0  0  0  0  0  0  0  0  0
    2.5095    2.5095    0.0000 C   0  0  0  0  0  0  0  0  0  0  0  0
    1.0607    2.1213    0.0000 C   0  0  0  0  0  0  0  0  0  0  0  0
    0.0000    1.0607    0.0000 C   0  0  0  0  0  0  0  0  0  0  0  0
   -1.0607    0.0000    0.0000 O   0  0  0  0  0  0  0  0  0  0  0  0
    2.8978    1.0607    0.0000 C   0  0  0  0  0  0  0  0  0  0  0  0
    3.9584    0.0000    0.0000 C   0  0  0  0  0  0  0  0  0  0  0  0
    3.8544    4.6309    0.0000 H   0  0  0  0  0  0  0  0  0  0  0  0
    1.4030    4.1322    0.0000 H   0  0  0  0  0  0  0  0  0  0  0  0
    3.8269    1.6527    0.0000 H   0  0  0  0  0  0  0  0  0  0  0  0
    1.3488    2.3465    0.0000 H   0  0  0  0  0  0  0  0  0  0  0  0
    2.8938   -0.2251    0.0000 H   0  0  0  0  0  0  0  0  0  0  0  0
    1.9841   -1.1820    0.0000 H   0  0  0  0  0  0  0  0  0  0  0  0
   -0.0000   -2.5607    0.0000 H   0  0  0  0  0  0  0  0  0  0  0  0
    2.8723   -4.7415    0.0000 H   0  0  0  0  0  0  0  0  0  0  0  0
    1.6492   -4.5147    0.0000 H   0  0  0  0  0  0  0  0  0  0  0  0
    3.6465   -4.3650    0.0000 H   0  0  0  0  0  0  0  0  0  0  0  0
    7.1112   -4.5773    0.0000 H   0  0  0  0  0  0  0  0  0  0  0  0
    8.9852   -2.2634    0.0000 H   0  0  0  0  0  0  0  0  0  0  0  0
   11.1296   -1.5958    0.0000 H   0  0  0  0  0  0  0  0  0  0  0  0
   11.3546   -3.5708    0.0000 H   0  0  0  0  0  0  0  0  0  0  0  0
   11.5263   -3.2479    0.0000 H   0  0  0  0  0  0  0  0  0  0  0  0
   11.7266   -4.4624    0.0000 H   0  0  0  0  0  0  0  0  0  0  0  0
   11.1211   -6.2719    0.0000 H   0  0  0  0  0  0  0  0  0  0  0  0
    6.6789   -6.5818    0.0000 H   0  0  0  0  0  0  0  0  0  0  0  0
   10.5071   -6.9348    0.0000 H   0  0  0  0  0  0  0  0  0  0  0  0
    7.5090   -6.8300    0.0000 H   0  0  0  0  0  0  0  0  0  0  0  0
    6.9158   -4.7141    0.0000 H   0  0  0  0  0  0  0  0  0  0  0  0
    2.5908   -6.7818    0.0000 H   0  0  0  0  0  0  0  0  0  0  0  0
    3.2516   -9.2944    0.0000 H   0  0  0  0  0  0  0  0  0  0  0  0
    7.2044   -7.8838    0.0000 H   0  0  0  0  0  0  0  0  0  0  0  0
    5.8408   -9.5089    0.0000 H   0  0  0  0  0  0  0  0  0  0  0  0
    7.0737   -6.3896    0.0000 H   0  0  0  0  0  0  0  0  0  0  0  0
    6.4610   -2.2507    0.0000 H   0  0  0  0  0  0  0  0  0  0  0  0
    5.9631   -3.0028    0.0000 H   0  0  0  0  0  0  0  0  0  0  0  0
    6.8407    0.0539    0.0000 H   0  0  0  0  0  0  0  0  0  0  0  0
    5.7510   -2.0774    0.0000 H   0  0  0  0  0  0  0  0  0  0  0  0
    7.7606   -2.1250    0.0000 H   0  0  0  0  0  0  0  0  0  0  0  0
    9.3080   -3.0369    0.0000 H   0  0  0  0  0  0  0  0  0  0  0  0
   10.1459   -1.2342    0.0000 H   0  0  0  0  0  0  0  0  0  0  0  0
    7.2705   -2.0898    0.0000 H   0  0  0  0  0  0  0  0  0  0  0  0
   10.5527   -0.8836    0.0000 H   0  0  0  0  0  0  0  0  0  0  0  0
   10.6852    1.1580    0.0000 H   0  0  0  0  0  0  0  0  0  0  0  0
    9.5693    2.1101    0.0000 H   0  0  0  0  0  0  0  0  0  0  0  0
    7.2001    3.8091    0.0000 H   0  0  0  0  0  0  0  0  0  0  0  0
    8.0340    4.3507    0.0000 H   0  0  0  0  0  0  0  0  0  0  0  0
    9.5923    1.7937    0.0000 H   0  0  0  0  0  0  0  0  0  0  0  0
   11.3873    4.4264    0.0000 H   0  0  0  0  0  0  0  0  0  0  0  0
    9.3602    5.0516    0.0000 H   0  0  0  0  0  0  0  0  0  0  0  0
   10.7620    2.3993    0.0000 H   0  0  0  0  0  0  0  0  0  0  0  0
    6.0070    3.7644    0.0000 H   0  0  0  0  0  0  0  0  0  0  0  0
    4.5350    2.8674    0.0000 H   0  0  0  0  0  0  0  0  0  0  0  0
    3.5406    0.8075    0.0000 H   0  0  0  0  0  0  0  0  0  0  0  0
    4.9297    4.2041    0.0000 H   0  0  0  0  0  0  0  0  0  0  0  0
    2.7098    4.7989    0.0000 H   0  0  0  0  0  0  0  0  0  0  0  0
    1.6068    3.7075    0.0000 H   0  0  0  0  0  0  0  0  0  0  0  0
    0.3107    3.4204    0.0000 H   0  0  0  0  0  0  0  0  0  0  0  0
    0.0000    2.5607    0.0000 H   0  0  0  0  0  0  0  0  0  0  0  0
    2.1253   -0.2251    0.0000 H   0  0  0  0  0  0  0  0  0  0  0  0
    4.3968   -1.4345    0.0000 H   0  0  0  0  0  0  0  0  0  0  0  0
    3.0350   -1.1820    0.0000 H   0  0  0  0  0  0  0  0  0  0  0  0
    5.3288    0.6100    0.0000 H   0  0  0  0  0  0  0  0  0  0  0  0
  1  2  2  3
  2  3  1  0
  3  4  1  0
  4  5  1  0
  5  6  1  0
  6  7  1  0
  7  8  1  0
  8  9  1  0
  9 10  1  0
 10 11  1  0
 11 12  1  0
 12 13  1  0
 12 14  1  0
 14 15  1  0
 15 16  1  0
 15 17  1  0
 17 18  1  0
  9 19  1  0
 19 20  1  0
 20 21  1  0
 21 22  1  0
 22 23  1  0
 23 24  1  0
  8 25  1  0
 25 26  1  0
 26 27  1  0
 27 28  1  0
 28 29  1  0
 28 30  1  0
 30 31  1  0
 31 32  1  0
 32 33  1  0
 33 34  1  0
 32 35  1  0
 35 36  1  0
 36 37  1  0
 37 38  1  0
 38 39  1  0
 39 40  1  0
 40 41  1  0
 41 42  1  0
 40 43  1  0
 43 44  1  0
 41  4  1  0
 42  5  1  0
 15 12  1  0
 24 19  1  0
 36 26  1  0
 39 37  1  0
 24 21  1  0
 31 28  1  0
 43 37  1  0
  1 45  1  0
  1 46  1  0
  2 47  1  0
  3 48  1  0
  3 49  1  0
  4 50  1  0
  5 51  1  0
  7 52  1  0
  7 53  1  0
  8 54  1  0
 11 55  1  0
 11 56  1  0
 13 57  1  0
 13 58  1  0
 13 59  1  0
 14 60  1  0
 14 61  1  0
 16 62  1  0
 17 63  1  0
 17 64  1  0
 19 65  1  0
 21 66  1  0
 22 67  1  0
 23 68  1  0
 23 69  1  0
 24 70  1  0
 25 71  1  0
 25 72  1  0
 26 73  1  0
 27 74  1  0
 27 75  1  0
 29 76  1  0
 29 77  1  0
 29 78  1  0
 30 79  1  0
 30 80  1  0
 31 81  1  0
 32 82  1  0
 33 83  1  0
 33 84  1  0
 34 85  1  0
 34 86  1  0
 34 87  1  0
 35 88  1  0
 35 89  1  0
 36 90  1  0
 38 91  1  0
 38 92  1  0
 39 93  1  0
 40 94  1  0
 41 95  1  0
 43 96  1  0
 44 97  1  0
 44 98  1  0
 44 99  1  0
M  RAD  2   9   2  20   2
M  END
$$$$
