
     RDKit          2D

103108  0  0  0  0  0  0  0  0999 V2000
    3.2286   -0.0000    0.0000 C   0  0  0  0  0  0  0  0  0  0  0  0
    1.7286    0.0000    0.0000 C   0  0  0  0  0  0  0  0  0  0  0  0
    1.0777    1.3515    0.0000 C   0  0  0  0  0  0  0  0  0  0  0  0
   -0.3846    1.6852    0.0000 C   0  0  0  0  0  0  0  0  0  0  0  0
   -1.5574    2.6205    0.0000 C   0  0  0  0  0  0  0  0  0  0  0  0
   -2.7301    3.5557    0.0000 As  0  0  0  0  0  3  0  0  0  0  0  0
   -2.5066    5.0390    0.0000 C   0  0  0  0  0  0  0  0  0  0  0  0
   -2.2830    6.5222    0.0000 C   0  0  0  0  0  0  0  0  0  0  0  0
   -2.0594    8.0054    0.0000 C   0  0  0  0  0  0  0  0  0  0  0  0
   -1.8359    9.4887    0.0000 C   0  0  0  0  0  0  0  0  0  0  0  0
   -1.3088   10.8930    0.0000 C   0  0  0  0  0  0  0  0  0  0  0  0
   -2.4816   11.8283    0.0000 S   0  0  0  0  0  0  0  0  0  0  0  0
   -3.7334   11.0019    0.0000 C   0  0  0  0  0  0  0  0  0  0  0  0
   -4.4244   12.3333    0.0000 C   0  0  0  0  0  0  0  0  0  0  0  0
   -3.3344    9.5560    0.0000 C   0  0  0  0  0  0  0  0  0  0  0  0
   -1.5574    0.7500    0.0000 C   0  0  0  0  0  0  0  0  0  0  0  0
   -1.5574   -0.7500    0.0000 C   0  0  0  0  0  0  0  0  0  0  0  0
   -2.2082   -2.1015    0.0000 C   0  0  0  0  0  0  0  0  0  0  0  0
   -0.3846   -1.6852    0.0000 C   0  0  0  0  0  0  0  0  0  0  0  0
    1.0777   -1.3515    0.0000 C   0  0  0  0  0  0  0  0  0  0  0  0
    2.5401   -1.6852    0.0000 O   0  0  0  0  0  0  0  0  0  0  0  0
    2.9823   -3.1186    0.0000 O   0  0  0  0  0  0  0  0  0  0  0  0
    4.4447   -3.4524    0.0000 C   0  0  0  0  0  0  0  0  0  0  0  0
    4.1109   -4.9148    0.0000 N   0  0  0  0  0  0  0  0  0  0  0  0
    5.5733   -5.2485    0.0000 C   0  0  0  0  0  0  0  0  0  0  0  0
    7.0357   -5.5823    0.0000 C   0  0  0  0  0  0  0  0  0  0  0  0
    5.9071   -3.7862    0.0000 C   0  0  0  0  0  0  0  0  0  0  0  0
    6.2408   -2.3238    0.0000 N   0  0  0  0  0  0  0  0  0  0  0  0
    5.7987   -0.8904    0.0000 C   0  0  0  0  0  0  0  0  0  0  0  0
    7.2611   -1.2242    0.0000 C   0  0  0  0  0  0  0  0  0  0  0  0
    7.8437    0.1580    0.0000 C   0  0  0  0  0  0  0  0  0  0  0  0
    6.6923    1.1194    0.0000 F   0  0  0  0  0  0  0  0  0  0  0  0
    9.3061   -0.1758    0.0000 C   0  0  0  0  0  0  0  0  0  0  0  0
   10.3264    0.9238    0.0000 C   0  0  0  0  0  0  0  0  0  0  0  0
   11.5864    0.1100    0.0000 N   0  0  0  0  0  0  0  0  0  0  0  0
   12.9212    0.7943    0.0000 C   0  0  0  0  0  0  0  0  0  0  0  0
   14.1813   -0.0195    0.0000 O   0  0  0  0  0  0  0  0  0  0  0  0
   11.5117   -1.3881    0.0000 C   0  0  0  0  0  0  0  0  0  0  0  0
   11.4369   -2.8863    0.0000 C   0  0  0  0  0  0  0  0  0  0  0  0
    8.8640    1.2576    0.0000 C   0  0  0  0  0  0  0  0  0  0  0  0
    8.4219    2.6910    0.0000 C   0  0  0  0  0  0  0  0  0  0  0  0
    7.9797    4.1243    0.0000 C   0  0  0  0  0  0  0  0  0  0  0  0
    7.5376    5.5577    0.0000 C   0  0  0  0  0  0  0  0  0  0  0  0
    7.0955    6.9910    0.0000 C   0  0  0  0  0  0  0  0  0  0  0  0
    3.8146   -1.3808    0.0000 H   0  0  0  0  0  0  0  0  0  0  0  0
    3.9786    1.2990    0.0000 H   0  0  0  0  0  0  0  0  0  0  0  0
    1.2606    2.8403    0.0000 H   0  0  0  0  0  0  0  0  0  0  0  0
    2.5401    1.6852    0.0000 H   0  0  0  0  0  0  0  0  0  0  0  0
    0.0966    3.1059    0.0000 H   0  0  0  0  0  0  0  0  0  0  0  0
   -0.6222    3.7932    0.0000 H   0  0  0  0  0  0  0  0  0  0  0  0
   -2.6286    1.5705    0.0000 H   0  0  0  0  0  0  0  0  0  0  0  0
   -4.1264    3.0077    0.0000 H   0  0  0  0  0  0  0  0  0  0  0  0
   -1.0233    4.8154    0.0000 H   0  0  0  0  0  0  0  0  0  0  0  0
   -3.9898    5.2625    0.0000 H   0  0  0  0  0  0  0  0  0  0  0  0
   -0.7998    6.2986    0.0000 H   0  0  0  0  0  0  0  0  0  0  0  0
   -3.7663    6.7458    0.0000 H   0  0  0  0  0  0  0  0  0  0  0  0
   -2.8563    8.0273    0.0000 H   0  0  0  0  0  0  0  0  0  0  0  0
   -0.5762    7.7819    0.0000 H   0  0  0  0  0  0  0  0  0  0  0  0
   -0.3841    9.1113    0.0000 H   0  0  0  0  0  0  0  0  0  0  0  0
    0.0327   10.2221    0.0000 H   0  0  0  0  0  0  0  0  0  0  0  0
   -0.5013   12.1571    0.0000 H   0  0  0  0  0  0  0  0  0  0  0  0
   -5.1297   10.4539    0.0000 H   0  0  0  0  0  0  0  0  0  0  0  0
   -5.1154   13.6647    0.0000 H   0  0  0  0  0  0  0  0  0  0  0  0
   -5.7558   11.6423    0.0000 H   0  0  0  0  0  0  0  0  0  0  0  0
   -3.0930   13.0243    0.0000 H   0  0  0  0  0  0  0  0  0  0  0  0
   -4.8141    9.3103    0.0000 H   0  0  0  0  0  0  0  0  0  0  0  0
   -3.3841    8.7604    0.0000 H   0  0  0  0  0  0  0  0  0  0  0  0
   -3.0496    0.5970    0.0000 H   0  0  0  0  0  0  0  0  0  0  0  0
   -2.3681    2.0120    0.0000 H   0  0  0  0  0  0  0  0  0  0  0  0
   -3.0496   -0.5970    0.0000 H   0  0  0  0  0  0  0  0  0  0  0  0
   -2.8590   -3.4529    0.0000 H   0  0  0  0  0  0  0  0  0  0  0  0
   -3.5597   -1.4506    0.0000 H   0  0  0  0  0  0  0  0  0  0  0  0
   -0.9462   -2.9122    0.0000 H   0  0  0  0  0  0  0  0  0  0  0  0
    0.0966   -3.1059    0.0000 H   0  0  0  0  0  0  0  0  0  0  0  0
   -1.4346   -2.7564    0.0000 H   0  0  0  0  0  0  0  0  0  0  0  0
    1.2606   -2.8403    0.0000 H   0  0  0  0  0  0  0  0  0  0  0  0
    4.7784   -1.9900    0.0000 H   0  0  0  0  0  0  0  0  0  0  0  0
    2.8408   -5.7128    0.0000 H   0  0  0  0  0  0  0  0  0  0  0  0
    5.2395   -6.7109    0.0000 H   0  0  0  0  0  0  0  0  0  0  0  0
    8.4981   -5.9161    0.0000 H   0  0  0  0  0  0  0  0  0  0  0  0
    6.7019   -7.0447    0.0000 H   0  0  0  0  0  0  0  0  0  0  0  0
    7.5452   -4.1715    0.0000 H   0  0  0  0  0  0  0  0  0  0  0  0
    7.3992   -3.9392    0.0000 H   0  0  0  0  0  0  0  0  0  0  0  0
    4.3442   -1.2570    0.0000 H   0  0  0  0  0  0  0  0  0  0  0  0
    5.6903    0.6057    0.0000 H   0  0  0  0  0  0  0  0  0  0  0  0
    8.5211   -2.0380    0.0000 H   0  0  0  0  0  0  0  0  0  0  0  0
    9.5703   -1.6523    0.0000 H   0  0  0  0  0  0  0  0  0  0  0  0
   10.9091    2.3060    0.0000 H   0  0  0  0  0  0  0  0  0  0  0  0
   12.9960    2.2925    0.0000 H   0  0  0  0  0  0  0  0  0  0  0  0
   10.0156   -1.4965    0.0000 H   0  0  0  0  0  0  0  0  0  0  0  0
   13.0098   -1.4629    0.0000 H   0  0  0  0  0  0  0  0  0  0  0  0
   11.3621   -4.3844    0.0000 H   0  0  0  0  0  0  0  0  0  0  0  0
   12.9350   -2.9610    0.0000 H   0  0  0  0  0  0  0  0  0  0  0  0
    9.9388   -2.8115    0.0000 H   0  0  0  0  0  0  0  0  0  0  0  0
    9.8552    3.1331    0.0000 H   0  0  0  0  0  0  0  0  0  0  0  0
    6.9885    2.2488    0.0000 H   0  0  0  0  0  0  0  0  0  0  0  0
    6.5464    3.6822    0.0000 H   0  0  0  0  0  0  0  0  0  0  0  0
    9.4131    4.5665    0.0000 H   0  0  0  0  0  0  0  0  0  0  0  0
    8.9710    5.9998    0.0000 H   0  0  0  0  0  0  0  0  0  0  0  0
    6.1043    5.1155    0.0000 H   0  0  0  0  0  0  0  0  0  0  0  0
    6.6533    8.4244    0.0000 H   0  0  0  0  0  0  0  0  0  0  0  0
    5.6621    6.5489    0.0000 H   0  0  0  0  0  0  0  0  0  0  0  0
    8.5288    7.4332    0.0000 H   0  0  0  0  0  0  0  0  0  0  0  0
  1  2  2  3
  2  3  1  0
  3  4  1  0
  4  5  1  0
  5  6  1  0
  6  7  1  0
  7  8  1  0
  8  9  1  0
  9 10  1  0
 10 11  1  0
 11 12  1  0
 12 13  1  0
 13 14  1  0
 13 15  1  0
  4 16  1  0
 16 17  1  0
 17 18  1  0
 17 19  1  0
 19 20  1  0
 20 21  1  0
 21 22  1  0
 22 23  1  0
 23 24  1  0
 24 25  1  0
 25 26  1  0
 25 27  1  0
 27 28  1  0
 28 29  1  0
 29 30  1  0
 30 31  1  0
 31 32  1  0
 31 33  1  0
 33 34  1  0
 34 35  1  0
 35 36  1  0
 36 37  2  0
 35 38  1  0
 38 39  1  0
 34 40  1  0
 40 41  1  0
 41 42  1  0
 42 43  1  0
 43 44  1  0
 20  2  1  0
 27 23  1  0
 30 28  1  0
 40 31  1  0
 15 10  1  0
 40 33  1  0
  1 45  1  0
  1 46  1  0
  3 47  1  0
  3 48  1  0
  4 49  1  0
  5 50  1  0
  5 51  1  0
  6 52  1  0
  7 53  1  0
  7 54  1  0
  8 55  1  0
  8 56  1  0
  9 57  1  0
  9 58  1  0
 10 59  1  0
 11 60  1  0
 11 61  1  0
 13 62  1  0
 14 63  1  0
 14 64  1  0
 14 65  1  0
 15 66  1  0
 15 67  1  0
 16 68  1  0
 16 69  1  0
 17 70  1  0
 18 71  1  0
 18 72  1  0
 18 73  1  0
 19 74  1  0
 19 75  1  0
 20 76  1  0
 23 77  1  0
 24 78  1  0
 25 79  1  0
 26 80  1  0
 26 81  1  0
 26 82  1  0
 27 83  1  0
 29 84  1  0
 29 85  1  0
 30 86  1  0
 33 87  1  0
 34 88  1  0
 36 89  1  0
 38 90  1  0
 38 91  1  0
 39 92  1  0
 39 93  1  0
 39 94  1  0
 41 95  1  0
 41 96  1  0
 42 97  1  0
 42 98  1  0
 43 99  1  0
 43100  1  0
 44101  1  0
 44102  1  0
 44103  1  0
M  END
$$$$
