
     RDKit          2D

 36 36  0  0  0  0  0  0  0  0999 V2000
    9.5437   10.3416    0.0000 C   0  0  0  0  0  0  0  0  0  0  0  0
    8.5795    9.1925    0.0000 C   0  0  0  0  0  0  0  0  0  0  0  0
    7.6153    8.0435    0.0000 C   0  0  0  0  0  0  0  0  0  0  0  0
    6.6511    6.8944    0.0000 C   0  0  0  0  0  0  0  0  0  0  0  0
    5.6869    5.7453    0.0000 C   0  0  0  0  0  0  0  0  0  0  0  0
    4.7228    4.5963    0.0000 C   0  0  0  0  0  0  0  0  0  0  0  0
    3.7586    3.4472    0.0000 C   0  0  0  0  0  0  0  0  0  0  0  0
    2.7944    2.2981    0.0000 C   0  0  0  0  0  0  0  0  0  0  0  0
    1.8302    1.1491    0.0000 C   0  0  0  0  0  0  0  0  0  0  0  0
    0.8660    0.0000    0.0000 C   0  0  0  0  0  0  0  0  0  0  0  0
    1.8302   -1.1491    0.0000 C   0  0  0  0  0  0  0  0  0  0  0  0
    0.3530   -1.4095    0.0000 C   0  0  0  0  0  0  0  0  0  0  0  0
   10.5078   11.4907    0.0000 H   0  0  0  0  0  0  0  0  0  0  0  0
    8.3946   11.3058    0.0000 H   0  0  0  0  0  0  0  0  0  0  0  0
   10.6927    9.3774    0.0000 H   0  0  0  0  0  0  0  0  0  0  0  0
    7.4304   10.1567    0.0000 H   0  0  0  0  0  0  0  0  0  0  0  0
    9.7285    8.2284    0.0000 H   0  0  0  0  0  0  0  0  0  0  0  0
    8.7644    7.0793    0.0000 H   0  0  0  0  0  0  0  0  0  0  0  0
    6.4662    9.0076    0.0000 H   0  0  0  0  0  0  0  0  0  0  0  0
    5.5020    7.8586    0.0000 H   0  0  0  0  0  0  0  0  0  0  0  0
    7.8002    5.9302    0.0000 H   0  0  0  0  0  0  0  0  0  0  0  0
    6.8360    4.7812    0.0000 H   0  0  0  0  0  0  0  0  0  0  0  0
    4.5379    6.7095    0.0000 H   0  0  0  0  0  0  0  0  0  0  0  0
    3.5737    5.5604    0.0000 H   0  0  0  0  0  0  0  0  0  0  0  0
    5.8718    3.6321    0.0000 H   0  0  0  0  0  0  0  0  0  0  0  0
    4.9076    2.4830    0.0000 H   0  0  0  0  0  0  0  0  0  0  0  0
    2.6095    4.4114    0.0000 H   0  0  0  0  0  0  0  0  0  0  0  0
    1.6453    3.2623    0.0000 H   0  0  0  0  0  0  0  0  0  0  0  0
    3.9435    1.3340    0.0000 H   0  0  0  0  0  0  0  0  0  0  0  0
    0.6811    2.1132    0.0000 H   0  0  0  0  0  0  0  0  0  0  0  0
    2.9624    0.4138    0.0000 H   0  0  0  0  0  0  0  0  0  0  0  0
   -0.4330    0.7500    0.0000 H   0  0  0  0  0  0  0  0  0  0  0  0
    2.3432   -2.5586    0.0000 H   0  0  0  0  0  0  0  0  0  0  0  0
    3.0729   -0.6216    0.0000 H   0  0  0  0  0  0  0  0  0  0  0  0
   -1.1242   -1.1491    0.0000 H   0  0  0  0  0  0  0  0  0  0  0  0
    0.3530   -2.9095    0.0000 H   0  0  0  0  0  0  0  0  0  0  0  0
  1  2  1  0
  2  3  1  0
  3  4  1  0
  4  5  1  0
  5  6  1  0
  6  7  1  0
  7  8  1  0
  8  9  1  0
  9 10  1  0
 10 11  1  0
 11 12  1  0
 12 10  1  0
  1 13  1  0
  1 14  1  0
  1 15  1  0
  2 16  1  0
  2 17  1  0
  3 18  1  0
  3 19  1  0
  4 20  1  0
  4 21  1  0
  5 22  1  0
  5 23  1  0
  6 24  1  0
  6 25  1  0
  7 26  1  0
  7 27  1  0
  8 28  1  0
  8 29  1  0
  9 30  1  0
  9 31  1  0
 10 32  1  0
 11 33  1  0
 11 34  1  0
 12 35  1  0
 12 36  1  0
M  END
$$$$
