
     RDKit          2D

 56 58  0  0  0  0  0  0  0  0999 V2000
   -6.5530    5.7453    0.0000 C   0  0  0  0  0  0  0  0  0  0  0  0
   -5.5888    4.5963    0.0000 C   0  0  0  0  0  0  0  0  0  0  0  0
   -4.6246    3.4472    0.0000 C   0  0  0  0  0  0  0  0  0  0  0  0
   -3.6604    2.2981    0.0000 C   0  0  0  0  0  0  0  0  0  0  0  0
   -2.6962    1.1491    0.0000 C   0  0  0  0  0  0  0  0  0  0  0  0
   -1.7321    0.0000    0.0000 C   0  0  0  0  0  0  0  0  0  0  0  0
   -2.6962   -1.1491    0.0000 C   0  0  0  0  0  0  0  0  0  0  0  0
   -3.6604   -2.2981    0.0000 C   0  0  0  0  0  0  0  0  0  0  0  0
   -4.6246   -3.4472    0.0000 O   0  0  0  0  0  0  0  0  0  0  0  0
   -6.1018   -3.1867    0.0000 C   0  0  0  0  0  0  0  0  0  0  0  0
   -7.5790   -2.9263    0.0000 C   0  0  0  0  0  0  0  0  0  0  0  0
   -8.5432   -4.0753    0.0000 C   0  0  0  0  0  0  0  0  0  0  0  0
   -8.0920   -1.5167    0.0000 N   0  0  0  0  0  0  0  0  0  0  0  0
   -3.8453   -0.1849    0.0000 N   0  0  0  0  0  0  0  0  0  0  0  0
   -5.2548   -0.6979    0.0000 O   0  0  0  0  0  0  0  0  0  0  0  0
   -0.4330    0.7500    0.0000 C   0  0  0  0  0  0  0  0  0  0  0  0
    0.8660    0.0000    0.0000 C   0  0  0  0  0  0  0  0  0  0  0  0
    1.8302    1.1491    0.0000 C   0  0  0  0  0  0  0  0  0  0  0  0
    2.7944    2.2981    0.0000 C   0  0  0  0  0  0  0  0  0  0  0  0
    3.7586    3.4472    0.0000 O   0  0  0  0  0  0  0  0  0  0  0  0
   -0.4330   -0.7500    0.0000 C   0  0  0  0  0  0  0  0  0  0  0  0
   -3.4755    4.4114    0.0000 C   0  0  0  0  0  0  0  0  0  0  0  0
   -2.7255    5.7104    0.0000 C   0  0  0  0  0  0  0  0  0  0  0  0
   -4.2255    5.7104    0.0000 O   0  0  0  0  0  0  0  0  0  0  0  0
   -7.5171    6.8944    0.0000 H   0  0  0  0  0  0  0  0  0  0  0  0
   -5.4039    6.7095    0.0000 H   0  0  0  0  0  0  0  0  0  0  0  0
   -7.7020    4.7812    0.0000 H   0  0  0  0  0  0  0  0  0  0  0  0
   -5.0682    5.3129    0.0000 H   0  0  0  0  0  0  0  0  0  0  0  0
   -6.7378    3.6321    0.0000 H   0  0  0  0  0  0  0  0  0  0  0  0
   -5.7737    2.4830    0.0000 H   0  0  0  0  0  0  0  0  0  0  0  0
   -4.8095    1.3340    0.0000 H   0  0  0  0  0  0  0  0  0  0  0  0
   -2.4024    3.1151    0.0000 H   0  0  0  0  0  0  0  0  0  0  0  0
   -1.5472    2.1132    0.0000 H   0  0  0  0  0  0  0  0  0  0  0  0
   -3.4127    0.7997    0.0000 H   0  0  0  0  0  0  0  0  0  0  0  0
   -1.5472   -2.1132    0.0000 H   0  0  0  0  0  0  0  0  0  0  0  0
   -2.5113   -3.2623    0.0000 H   0  0  0  0  0  0  0  0  0  0  0  0
   -4.8738   -1.7064    0.0000 H   0  0  0  0  0  0  0  0  0  0  0  0
   -5.8674   -1.8572    0.0000 H   0  0  0  0  0  0  0  0  0  0  0  0
   -6.3623   -4.6639    0.0000 H   0  0  0  0  0  0  0  0  0  0  0  0
   -9.5074   -5.2244    0.0000 H   0  0  0  0  0  0  0  0  0  0  0  0
   -9.6923   -3.1111    0.0000 H   0  0  0  0  0  0  0  0  0  0  0  0
   -7.3941   -5.0395    0.0000 H   0  0  0  0  0  0  0  0  0  0  0  0
   -9.5693   -1.2562    0.0000 H   0  0  0  0  0  0  0  0  0  0  0  0
   -3.6343    1.0117    0.0000 H   0  0  0  0  0  0  0  0  0  0  0  0
   -6.4039    0.2663    0.0000 H   0  0  0  0  0  0  0  0  0  0  0  0
   -0.4330    2.2500    0.0000 H   0  0  0  0  0  0  0  0  0  0  0  0
    1.8302   -1.1491    0.0000 H   0  0  0  0  0  0  0  0  0  0  0  0
    2.9793    0.1849    0.0000 H   0  0  0  0  0  0  0  0  0  0  0  0
    0.6811    2.1132    0.0000 H   0  0  0  0  0  0  0  0  0  0  0  0
    3.9435    1.3340    0.0000 H   0  0  0  0  0  0  0  0  0  0  0  0
    1.6453    3.2623    0.0000 H   0  0  0  0  0  0  0  0  0  0  0  0
    3.2455    4.8567    0.0000 H   0  0  0  0  0  0  0  0  0  0  0  0
   -0.4330   -2.2500    0.0000 H   0  0  0  0  0  0  0  0  0  0  0  0
   -2.2175    3.5945    0.0000 H   0  0  0  0  0  0  0  0  0  0  0  0
   -1.3160    5.1974    0.0000 H   0  0  0  0  0  0  0  0  0  0  0  0
   -2.4651    7.1876    0.0000 H   0  0  0  0  0  0  0  0  0  0  0  0
  1  2  1  0
  2  3  1  0
  3  4  1  0
  4  5  1  0
  6  5  1  6
  6  7  1  0
  7  8  1  0
  8  9  1  0
  9 10  1  0
 10 11  1  0
 11 12  1  0
 11 13  2  3
  7 14  1  0
 14 15  1  0
  6 16  1  0
 16 17  1  0
 17 18  1  0
 18 19  1  0
 19 20  1  0
 17 21  1  0
  3 22  1  0
 22 23  1  0
 23 24  1  0
 21  6  1  0
 24 22  1  0
 21 16  1  0
  1 25  1  0
  1 26  1  0
  1 27  1  0
  2 28  1  0
  2 29  1  0
  3 30  1  6
  4 31  1  0
  4 32  1  0
  5 33  1  0
  5 34  1  0
  7 35  1  6
  8 36  1  0
  8 37  1  0
 10 38  1  0
 10 39  1  0
 12 40  1  0
 12 41  1  0
 12 42  1  0
 13 43  1  0
 14 44  1  0
 15 45  1  0
 16 46  1  6
 17 47  1  1
 18 48  1  0
 18 49  1  0
 19 50  1  0
 19 51  1  0
 20 52  1  0
 21 53  1  6
 22 54  1  6
 23 55  1  0
 23 56  1  0
M  END
$$$$
