
     RDKit          2D

 75 77  0  0  0  0  0  0  0  0999 V2000
   -3.1586   -4.5616    0.0000 C   0  0  0  0  0  0  0  0  0  0  0  0
   -2.4086   -3.2626    0.0000 C   0  0  0  0  0  0  0  0  0  0  0  0
   -3.1586   -1.9635    0.0000 C   0  0  0  0  0  0  0  0  0  0  0  0
   -3.9086   -0.6645    0.0000 C   0  0  0  0  0  0  0  0  0  0  0  0
   -1.8596   -1.2135    0.0000 C   0  0  0  0  0  0  0  0  0  0  0  0
   -2.7413    0.0000    0.0000 O   0  0  0  0  0  0  0  0  0  0  0  0
   -1.8596    1.2135    0.0000 C   0  0  0  0  0  0  0  0  0  0  0  0
   -1.2495    2.5838    0.0000 O   0  0  0  0  0  0  0  0  0  0  0  0
   -2.1312    3.7974    0.0000 C   0  0  0  0  0  0  0  0  0  0  0  0
   -2.5446    5.2393    0.0000 C   0  0  0  0  0  0  0  0  0  0  0  0
   -1.0892    4.8764    0.0000 C   0  0  0  0  0  0  0  0  0  0  0  0
   -0.4791    6.2467    0.0000 C   0  0  0  0  0  0  0  0  0  0  0  0
    1.0127    6.4035    0.0000 C   0  0  0  0  0  0  0  0  0  0  0  0
    1.6228    7.7738    0.0000 C   0  0  0  0  0  0  0  0  0  0  0  0
    2.2329    9.1441    0.0000 C   0  0  0  0  0  0  0  0  0  0  0  0
    2.8430   10.5144    0.0000 C   0  0  0  0  0  0  0  0  0  0  0  0
   -0.4330    0.7500    0.0000 C   0  0  0  0  0  0  0  0  0  0  0  0
    0.8660    0.0000    0.0000 C   0  0  0  0  0  0  0  0  0  0  0  0
    1.8302    1.1491    0.0000 C   0  0  0  0  0  0  0  0  0  0  0  0
    2.7944    2.2981    0.0000 C   0  0  0  0  0  0  0  0  0  0  0  0
    3.7586    3.4472    0.0000 C   0  0  0  0  0  0  0  0  0  0  0  0
    2.9793    0.1849    0.0000 C   0  0  0  0  0  0  0  0  0  0  0  0
    4.1283   -0.7793    0.0000 C   0  0  0  0  0  0  0  0  0  0  0  0
    5.2774   -1.7435    0.0000 C   0  0  0  0  0  0  0  0  0  0  0  0
    6.4265   -2.7077    0.0000 C   0  0  0  0  0  0  0  0  0  0  0  0
    7.5755   -3.6718    0.0000 C   0  0  0  0  0  0  0  0  0  0  0  0
    6.2416   -0.5944    0.0000 C   0  0  0  0  0  0  0  0  0  0  0  0
    7.2058    0.5547    0.0000 C   0  0  0  0  0  0  0  0  0  0  0  0
   -0.4330   -0.7500    0.0000 C   0  0  0  0  0  0  0  0  0  0  0  0
   -2.4086   -5.8606    0.0000 H   0  0  0  0  0  0  0  0  0  0  0  0
   -4.6586   -4.5616    0.0000 H   0  0  0  0  0  0  0  0  0  0  0  0
   -0.9198   -3.4454    0.0000 H   0  0  0  0  0  0  0  0  0  0  0  0
   -4.4577   -2.7135    0.0000 H   0  0  0  0  0  0  0  0  0  0  0  0
   -4.6586    0.6346    0.0000 H   0  0  0  0  0  0  0  0  0  0  0  0
   -3.3352   -0.1107    0.0000 H   0  0  0  0  0  0  0  0  0  0  0  0
   -5.2077   -1.4145    0.0000 H   0  0  0  0  0  0  0  0  0  0  0  0
   -1.0870   -2.4993    0.0000 H   0  0  0  0  0  0  0  0  0  0  0  0
   -3.1586    1.9635    0.0000 H   0  0  0  0  0  0  0  0  0  0  0  0
   -3.4794    3.1398    0.0000 H   0  0  0  0  0  0  0  0  0  0  0  0
   -4.0364    5.0825    0.0000 H   0  0  0  0  0  0  0  0  0  0  0  0
   -2.4400    6.7356    0.0000 H   0  0  0  0  0  0  0  0  0  0  0  0
    0.1544    4.0376    0.0000 H   0  0  0  0  0  0  0  0  0  0  0  0
   -1.3608    7.4602    0.0000 H   0  0  0  0  0  0  0  0  0  0  0  0
    1.8944    5.1900    0.0000 H   0  0  0  0  0  0  0  0  0  0  0  0
    2.9931    7.1637    0.0000 H   0  0  0  0  0  0  0  0  0  0  0  0
    0.2525    8.3839    0.0000 H   0  0  0  0  0  0  0  0  0  0  0  0
    0.8626    9.7542    0.0000 H   0  0  0  0  0  0  0  0  0  0  0  0
    3.6032    8.5340    0.0000 H   0  0  0  0  0  0  0  0  0  0  0  0
    3.4531   11.8848    0.0000 H   0  0  0  0  0  0  0  0  0  0  0  0
    4.2133    9.9043    0.0000 H   0  0  0  0  0  0  0  0  0  0  0  0
    1.4727   11.1245    0.0000 H   0  0  0  0  0  0  0  0  0  0  0  0
    0.0055    2.1845    0.0000 H   0  0  0  0  0  0  0  0  0  0  0  0
    1.6830   -1.2580    0.0000 H   0  0  0  0  0  0  0  0  0  0  0  0
    0.8072    2.2461    0.0000 H   0  0  0  0  0  0  0  0  0  0  0  0
    4.0524    1.4812    0.0000 H   0  0  0  0  0  0  0  0  0  0  0  0
    1.6453    3.2623    0.0000 H   0  0  0  0  0  0  0  0  0  0  0  0
    4.7228    4.5963    0.0000 H   0  0  0  0  0  0  0  0  0  0  0  0
    2.6095    4.4114    0.0000 H   0  0  0  0  0  0  0  0  0  0  0  0
    4.9076    2.4830    0.0000 H   0  0  0  0  0  0  0  0  0  0  0  0
    4.0763    1.2079    0.0000 H   0  0  0  0  0  0  0  0  0  0  0  0
    2.1623   -1.0731    0.0000 H   0  0  0  0  0  0  0  0  0  0  0  0
    3.1642   -1.9284    0.0000 H   0  0  0  0  0  0  0  0  0  0  0  0
    4.9453    0.4787    0.0000 H   0  0  0  0  0  0  0  0  0  0  0  0
    4.3132   -2.8925    0.0000 H   0  0  0  0  0  0  0  0  0  0  0  0
    5.4623   -3.8567    0.0000 H   0  0  0  0  0  0  0  0  0  0  0  0
    7.5235   -1.6847    0.0000 H   0  0  0  0  0  0  0  0  0  0  0  0
    8.7246   -4.6360    0.0000 H   0  0  0  0  0  0  0  0  0  0  0  0
    6.6114   -4.8209    0.0000 H   0  0  0  0  0  0  0  0  0  0  0  0
    8.5397   -2.5228    0.0000 H   0  0  0  0  0  0  0  0  0  0  0  0
    7.4996   -1.4113    0.0000 H   0  0  0  0  0  0  0  0  0  0  0  0
    5.2186    0.5026    0.0000 H   0  0  0  0  0  0  0  0  0  0  0  0
    8.1700    1.7037    0.0000 H   0  0  0  0  0  0  0  0  0  0  0  0
    8.3548   -0.4095    0.0000 H   0  0  0  0  0  0  0  0  0  0  0  0
    6.0567    1.5188    0.0000 H   0  0  0  0  0  0  0  0  0  0  0  0
    0.1771   -2.1203    0.0000 H   0  0  0  0  0  0  0  0  0  0  0  0
  1  2  2  3
  2  3  1  0
  3  4  1  0
  3  5  1  0
  5  6  1  0
  6  7  1  0
  7  8  1  0
  8  9  1  0
  9 10  1  0
 10 11  1  0
 11 12  1  0
 12 13  2  3
 13 14  1  0
 14 15  1  0
 15 16  1  0
  7 17  1  0
 17 18  1  0
 18 19  1  0
 19 20  1  0
 20 21  1  0
 19 22  1  0
 22 23  1  0
 23 24  1  0
 24 25  1  0
 25 26  1  0
 24 27  1  0
 27 28  1  0
 18 29  1  0
 29  5  1  0
 11  9  1  0
 29 17  1  0
  1 30  1  0
  1 31  1  0
  2 32  1  0
  3 33  1  6
  4 34  1  0
  4 35  1  0
  4 36  1  0
  5 37  1  6
  7 38  1  1
  9 39  1  1
 10 40  1  0
 10 41  1  0
 11 42  1  6
 12 43  1  0
 13 44  1  0
 14 45  1  0
 14 46  1  0
 15 47  1  0
 15 48  1  0
 16 49  1  0
 16 50  1  0
 16 51  1  0
 17 52  1  6
 18 53  1  1
 19 54  1  1
 20 55  1  0
 20 56  1  0
 21 57  1  0
 21 58  1  0
 21 59  1  0
 22 60  1  0
 22 61  1  0
 23 62  1  0
 23 63  1  0
 24 64  1  0
 25 65  1  0
 25 66  1  0
 26 67  1  0
 26 68  1  0
 26 69  1  0
 27 70  1  0
 27 71  1  0
 28 72  1  0
 28 73  1  0
 28 74  1  0
 29 75  1  6
M  END
$$$$
