
     RDKit          2D

 61 64  0  0  0  0  0  0  0  0999 V2000
   -7.9174   -2.6401    0.0000 C   0  0  0  0  0  0  0  0  0  0  0  0
   -7.4538   -1.2135    0.0000 C   0  0  0  0  0  0  0  0  0  0  0  0
   -8.3355    0.0000    0.0000 C   0  0  0  0  0  0  0  0  0  0  0  0
   -9.4502    1.0037    0.0000 C   0  0  0  0  0  0  0  0  0  0  0  0
  -10.5649    2.0074    0.0000 O   0  0  0  0  0  0  0  0  0  0  0  0
   -7.4538    1.2135    0.0000 O   0  0  0  0  0  0  0  0  0  0  0  0
   -6.0272    0.7500    0.0000 C   0  0  0  0  0  0  0  0  0  0  0  0
   -4.8545    1.6852    0.0000 C   0  0  0  0  0  0  0  0  0  0  0  0
   -3.3921    1.3515    0.0000 C   0  0  0  0  0  0  0  0  0  0  0  0
   -2.7413    0.0000    0.0000 C   0  0  0  0  0  0  0  0  0  0  0  0
   -1.8596    1.2135    0.0000 C   0  0  0  0  0  0  0  0  0  0  0  0
   -0.4330    0.7500    0.0000 C   0  0  0  0  0  0  0  0  0  0  0  0
    0.8660    0.0000    0.0000 C   0  0  0  0  0  0  0  0  0  0  0  0
    1.8302    1.1491    0.0000 C   0  0  0  0  0  0  0  0  0  0  0  0
    2.7944    2.2981    0.0000 C   0  0  0  0  0  0  0  0  0  0  0  0
    3.7586    3.4472    0.0000 O   0  0  0  0  0  0  0  0  0  0  0  0
    3.2455    4.8567    0.0000 C   0  0  0  0  0  0  0  0  0  0  0  0
    2.7325    6.2663    0.0000 C   0  0  0  0  0  0  0  0  0  0  0  0
    2.2195    7.6758    0.0000 C   0  0  0  0  0  0  0  0  0  0  0  0
   -0.4330   -0.7500    0.0000 C   0  0  0  0  0  0  0  0  0  0  0  0
   -1.8596   -1.2135    0.0000 C   0  0  0  0  0  0  0  0  0  0  0  0
   -3.3921   -1.3515    0.0000 C   0  0  0  0  0  0  0  0  0  0  0  0
   -4.8545   -1.6852    0.0000 C   0  0  0  0  0  0  0  0  0  0  0  0
   -4.2037   -3.0367    0.0000 C   0  0  0  0  0  0  0  0  0  0  0  0
   -6.0272   -0.7500    0.0000 C   0  0  0  0  0  0  0  0  0  0  0  0
   -9.3846   -2.9520    0.0000 H   0  0  0  0  0  0  0  0  0  0  0  0
   -6.9137   -3.7548    0.0000 H   0  0  0  0  0  0  0  0  0  0  0  0
   -9.4502   -1.0037    0.0000 H   0  0  0  0  0  0  0  0  0  0  0  0
  -10.4539   -0.1110    0.0000 H   0  0  0  0  0  0  0  0  0  0  0  0
   -8.4465    2.1184    0.0000 H   0  0  0  0  0  0  0  0  0  0  0  0
  -10.2531    3.4746    0.0000 H   0  0  0  0  0  0  0  0  0  0  0  0
   -6.3883    1.9101    0.0000 H   0  0  0  0  0  0  0  0  0  0  0  0
   -5.7050    2.5529    0.0000 H   0  0  0  0  0  0  0  0  0  0  0  0
   -4.3733    3.1059    0.0000 H   0  0  0  0  0  0  0  0  0  0  0  0
   -3.2949    2.1427    0.0000 H   0  0  0  0  0  0  0  0  0  0  0  0
   -2.0539    2.0292    0.0000 H   0  0  0  0  0  0  0  0  0  0  0  0
   -2.4330    1.7673    0.0000 H   0  0  0  0  0  0  0  0  0  0  0  0
   -1.2495    2.5838    0.0000 H   0  0  0  0  0  0  0  0  0  0  0  0
    0.0055    2.1845    0.0000 H   0  0  0  0  0  0  0  0  0  0  0  0
    1.8302   -1.1491    0.0000 H   0  0  0  0  0  0  0  0  0  0  0  0
    2.9793    0.1849    0.0000 H   0  0  0  0  0  0  0  0  0  0  0  0
    0.8072    2.2461    0.0000 H   0  0  0  0  0  0  0  0  0  0  0  0
    3.9435    1.3340    0.0000 H   0  0  0  0  0  0  0  0  0  0  0  0
    1.6453    3.2623    0.0000 H   0  0  0  0  0  0  0  0  0  0  0  0
    1.8360    4.3437    0.0000 H   0  0  0  0  0  0  0  0  0  0  0  0
    4.6551    5.3698    0.0000 H   0  0  0  0  0  0  0  0  0  0  0  0
    1.3230    5.7532    0.0000 H   0  0  0  0  0  0  0  0  0  0  0  0
    4.1420    6.7793    0.0000 H   0  0  0  0  0  0  0  0  0  0  0  0
    1.7064    9.0854    0.0000 H   0  0  0  0  0  0  0  0  0  0  0  0
    3.6290    8.1888    0.0000 H   0  0  0  0  0  0  0  0  0  0  0  0
    0.8099    7.1628    0.0000 H   0  0  0  0  0  0  0  0  0  0  0  0
    0.1771   -2.1203    0.0000 H   0  0  0  0  0  0  0  0  0  0  0  0
   -1.2495   -2.5838    0.0000 H   0  0  0  0  0  0  0  0  0  0  0  0
   -2.8035   -2.3793    0.0000 H   0  0  0  0  0  0  0  0  0  0  0  0
   -2.0539   -2.0292    0.0000 H   0  0  0  0  0  0  0  0  0  0  0  0
   -3.2093   -2.8403    0.0000 H   0  0  0  0  0  0  0  0  0  0  0  0
   -6.0272   -2.6205    0.0000 H   0  0  0  0  0  0  0  0  0  0  0  0
   -3.5528   -4.3881    0.0000 H   0  0  0  0  0  0  0  0  0  0  0  0
   -5.5551   -3.6875    0.0000 H   0  0  0  0  0  0  0  0  0  0  0  0
   -2.7349   -2.7322    0.0000 H   0  0  0  0  0  0  0  0  0  0  0  0
   -4.6479   -0.1605    0.0000 H   0  0  0  0  0  0  0  0  0  0  0  0
  1  2  2  3
  2  3  1  0
  3  4  1  0
  4  5  1  0
  3  6  1  0
  6  7  1  0
  7  8  1  0
  8  9  1  0
 10  9  1  1
 10 11  1  0
 11 12  1  0
 12 13  1  0
 13 14  1  0
 14 15  1  0
 15 16  1  0
 16 17  1  0
 17 18  1  0
 18 19  1  0
 13 20  1  0
 20 21  1  0
 10 22  1  0
 22 23  1  0
 23 24  1  0
 23 25  1  0
 25  2  1  0
 25  7  1  0
 21 10  1  0
 20 12  1  0
  1 26  1  0
  1 27  1  0
  3 28  1  0
  4 29  1  0
  4 30  1  0
  5 31  1  0
  7 32  1  1
  8 33  1  0
  8 34  1  0
  9 35  1  0
  9 36  1  0
 11 37  1  0
 11 38  1  0
 12 39  1  1
 13 40  1  1
 14 41  1  0
 14 42  1  0
 15 43  1  0
 15 44  1  0
 17 45  1  0
 17 46  1  0
 18 47  1  0
 18 48  1  0
 19 49  1  0
 19 50  1  0
 19 51  1  0
 20 52  1  1
 21 53  1  0
 21 54  1  0
 22 55  1  0
 22 56  1  0
 23 57  1  1
 24 58  1  0
 24 59  1  0
 24 60  1  0
 25 61  1  1
M  END
$$$$
