
     RDKit          2D

 41 46  0  0  0  0  0  0  0  0999 V2000
   -9.6641   -1.4833    0.0000 N   0  0  0  0  0  0  0  0  0  0  0  0
  -10.1771   -0.0737    0.0000 C   0  0  0  0  0  0  0  0  0  0  0  0
   -8.8781    0.6763    0.0000 C   0  0  0  0  0  0  0  0  0  0  0  0
   -7.9139   -0.4728    0.0000 C   0  0  0  0  0  0  0  0  0  0  0  0
   -6.9497   -1.6219    0.0000 C   0  0  0  0  0  0  0  0  0  0  0  0
   -5.9855   -2.7709    0.0000 C   0  0  0  0  0  0  0  0  0  0  0  0
   -4.6865   -3.5209    0.0000 O   0  0  0  0  0  0  0  0  0  0  0  0
   -4.6865   -2.0209    0.0000 C   0  0  0  0  0  0  0  0  0  0  0  0
   -3.2093   -1.7605    0.0000 C   0  0  0  0  0  0  0  0  0  0  0  0
   -1.7321   -1.5000    0.0000 C   0  0  0  0  0  0  0  0  0  0  0  0
   -1.7321    0.0000    0.0000 C   0  0  0  0  0  0  0  0  0  0  0  0
   -0.4330    0.7500    0.0000 C   0  0  0  0  0  0  0  0  0  0  0  0
    0.8660    0.0000    0.0000 C   0  0  0  0  0  0  0  0  0  0  0  0
   -0.4330   -0.7500    0.0000 C   0  0  0  0  0  0  0  0  0  0  0  0
   -9.3911    2.0858    0.0000 C   0  0  0  0  0  0  0  0  0  0  0  0
   -7.9139    1.8253    0.0000 C   0  0  0  0  0  0  0  0  0  0  0  0
  -11.6543   -0.3342    0.0000 C   0  0  0  0  0  0  0  0  0  0  0  0
  -11.1413    1.0753    0.0000 C   0  0  0  0  0  0  0  0  0  0  0  0
  -10.6282   -2.6324    0.0000 H   0  0  0  0  0  0  0  0  0  0  0  0
   -8.9017   -1.7164    0.0000 H   0  0  0  0  0  0  0  0  0  0  0  0
   -8.3824   -1.1178    0.0000 H   0  0  0  0  0  0  0  0  0  0  0  0
   -6.6558    0.3441    0.0000 H   0  0  0  0  0  0  0  0  0  0  0  0
   -5.9267   -0.5248    0.0000 H   0  0  0  0  0  0  0  0  0  0  0  0
   -7.9727   -2.7189    0.0000 H   0  0  0  0  0  0  0  0  0  0  0  0
   -6.9497   -3.9200    0.0000 H   0  0  0  0  0  0  0  0  0  0  0  0
   -5.0239   -0.5594    0.0000 H   0  0  0  0  0  0  0  0  0  0  0  0
   -3.4697   -0.2833    0.0000 H   0  0  0  0  0  0  0  0  0  0  0  0
   -2.9488   -3.2377    0.0000 H   0  0  0  0  0  0  0  0  0  0  0  0
   -1.2190   -2.9095    0.0000 H   0  0  0  0  0  0  0  0  0  0  0  0
   -3.0311    0.7500    0.0000 H   0  0  0  0  0  0  0  0  0  0  0  0
   -0.4330    2.2500    0.0000 H   0  0  0  0  0  0  0  0  0  0  0  0
    1.8302    1.1491    0.0000 H   0  0  0  0  0  0  0  0  0  0  0  0
    1.8302   -1.1491    0.0000 H   0  0  0  0  0  0  0  0  0  0  0  0
  -10.8890    2.0073    0.0000 H   0  0  0  0  0  0  0  0  0  0  0  0
   -9.3911    3.5858    0.0000 H   0  0  0  0  0  0  0  0  0  0  0  0
   -7.4008    3.2349    0.0000 H   0  0  0  0  0  0  0  0  0  0  0  0
   -6.5331    1.2393    0.0000 H   0  0  0  0  0  0  0  0  0  0  0  0
  -11.6543   -1.8342    0.0000 H   0  0  0  0  0  0  0  0  0  0  0  0
  -13.1315   -0.0737    0.0000 H   0  0  0  0  0  0  0  0  0  0  0  0
  -12.4403    1.8253    0.0000 H   0  0  0  0  0  0  0  0  0  0  0  0
  -10.3244    2.3333    0.0000 H   0  0  0  0  0  0  0  0  0  0  0  0
  1  2  1  0
  2  3  1  0
  3  4  1  0
  4  5  1  0
  5  6  1  0
  6  7  1  0
  7  8  1  0
  8  9  1  0
  9 10  1  0
 10 11  1  0
 11 12  1  0
 12 13  1  0
 13 14  1  0
  3 15  1  0
 15 16  1  0
  2 17  1  0
 17 18  1  0
 18  2  1  0
 16  3  1  0
  8  6  1  0
 14 10  1  0
 14 11  1  0
 14 12  1  0
  1 19  1  0
  1 20  1  0
  4 21  1  0
  4 22  1  0
  5 23  1  0
  5 24  1  0
  6 25  1  0
  8 26  1  0
  9 27  1  0
  9 28  1  0
 10 29  1  0
 11 30  1  0
 12 31  1  0
 13 32  1  0
 13 33  1  0
 15 34  1  0
 15 35  1  0
 16 36  1  0
 16 37  1  0
 17 38  1  0
 17 39  1  0
 18 40  1  0
 18 41  1  0
M  END
$$$$
