
     RDKit          2D

107113  0  0  0  0  0  0  0  0999 V2000
   -8.2460   -6.8295    0.0000 C   0  0  0  0  0  0  0  0  0  0  0  0
   -7.0173   -5.9692    0.0000 C   0  0  0  0  0  0  0  0  0  0  0  0
   -7.1480   -4.4749    0.0000 C   0  0  0  0  0  0  0  0  0  0  0  0
   -7.2787   -2.9806    0.0000 C   0  0  0  0  0  0  0  0  0  0  0  0
   -5.7844   -2.8499    0.0000 O   0  0  0  0  0  0  0  0  0  0  0  0
   -7.4095   -1.4863    0.0000 C   0  0  0  0  0  0  0  0  0  0  0  0
   -7.5402    0.0080    0.0000 O   0  0  0  0  0  0  0  0  0  0  0  0
   -8.8997    0.6419    0.0000 C   0  0  0  0  0  0  0  0  0  0  0  0
   -9.5336   -0.7176    0.0000 Cl  0  0  0  0  0  0  0  0  0  0  0  0
  -10.2591    1.2758    0.0000 C   0  0  0  0  0  0  0  0  0  0  0  0
  -11.6186    1.9098    0.0000 C   0  0  0  0  0  0  0  0  0  0  0  0
  -12.2525    0.5503    0.0000 C   0  0  0  0  0  0  0  0  0  0  0  0
  -12.8864   -0.8092    0.0000 C   0  0  0  0  0  0  0  0  0  0  0  0
  -10.9847    3.2692    0.0000 N   0  0  0  0  0  0  0  0  0  0  0  0
  -11.4977    4.6788    0.0000 C   0  0  0  0  0  0  0  0  0  0  0  0
  -12.0107    6.0883    0.0000 O   0  0  0  0  0  0  0  0  0  0  0  0
  -13.4879    6.3488    0.0000 C   0  0  0  0  0  0  0  0  0  0  0  0
  -14.0010    7.7583    0.0000 C   0  0  0  0  0  0  0  0  0  0  0  0
   -9.6252    2.6353    0.0000 C   0  0  0  0  0  0  0  0  0  0  0  0
   -8.9913    3.9948    0.0000 C   0  0  0  0  0  0  0  0  0  0  0  0
   -8.3574    5.3542    0.0000 C   0  0  0  0  0  0  0  0  0  0  0  0
   -7.7234    6.7137    0.0000 C   0  0  0  0  0  0  0  0  0  0  0  0
   -6.6628    7.7743    0.0000 C   0  0  0  0  0  0  0  0  0  0  0  0
   -7.5231    9.0031    0.0000 C   0  0  0  0  0  0  0  0  0  0  0  0
   -6.2745    6.3255    0.0000 N   0  0  0  0  0  0  0  0  0  0  0  0
   -5.2139    5.2648    0.0000 C   0  0  0  0  0  0  0  0  0  0  0  0
   -4.1532    4.2041    0.0000 P   0  0  0  0  0  0  0  0  0  0  0  0
   -2.7043    4.5924    0.0000 C   0  0  0  0  0  0  0  0  0  0  0  0
   -4.5414    2.7552    0.0000 C   0  0  0  0  0  0  0  0  0  0  0  0
   -4.4107    1.2610    0.0000 C   0  0  0  0  0  0  0  0  0  0  0  0
   -3.1820    2.1213    0.0000 C   0  0  0  0  0  0  0  0  0  0  0  0
   -2.1213    1.0607    0.0000 C   0  0  0  0  0  0  0  0  0  0  0  0
   -1.0607    0.0000    0.0000 C   0  0  0  0  0  0  0  0  0  0  0  0
   -0.0000   -1.0607    0.0000 C   0  0  0  0  0  0  0  0  0  0  0  0
    1.0607    0.0000    0.0000 C   0  0  0  0  0  0  0  0  0  0  0  0
    0.0000    1.0607    0.0000 C   0  0  0  0  0  0  0  0  0  0  0  0
   -0.3607    0.0000    0.0000 C   0  0  0  0  0  0  0  0  0  0  0  0
   -1.0607    2.1213    0.0000 C   0  0  0  0  0  0  0  0  0  0  0  0
    0.0000    3.1820    0.0000 C   0  0  0  0  0  0  0  0  0  0  0  0
   -1.0607    4.2426    0.0000 C   0  0  0  0  0  0  0  0  0  0  0  0
   -2.1213    5.3033    0.0000 C   0  0  0  0  0  0  0  0  0  0  0  0
    0.0000    5.3033    0.0000 C   0  0  0  0  0  0  0  0  0  0  0  0
    1.0607    4.2426    0.0000 C   0  0  0  0  0  0  0  0  0  0  0  0
    2.1213    3.1820    0.0000 C   0  0  0  0  0  0  0  0  0  0  0  0
    2.1213    5.3033    0.0000 C   0  0  0  0  0  0  0  0  0  0  0  0
   -8.1153   -8.3238    0.0000 H   0  0  0  0  0  0  0  0  0  0  0  0
   -9.6055   -6.1956    0.0000 H   0  0  0  0  0  0  0  0  0  0  0  0
   -5.6578   -6.6031    0.0000 H   0  0  0  0  0  0  0  0  0  0  0  0
   -8.6423   -4.6056    0.0000 H   0  0  0  0  0  0  0  0  0  0  0  0
   -5.6489   -4.5273    0.0000 H   0  0  0  0  0  0  0  0  0  0  0  0
   -8.7730   -3.1113    0.0000 H   0  0  0  0  0  0  0  0  0  0  0  0
   -4.7807   -3.9646    0.0000 H   0  0  0  0  0  0  0  0  0  0  0  0
   -8.9038   -1.6170    0.0000 H   0  0  0  0  0  0  0  0  0  0  0  0
   -5.9152   -1.3556    0.0000 H   0  0  0  0  0  0  0  0  0  0  0  0
   -8.4303    1.3930    0.0000 H   0  0  0  0  0  0  0  0  0  0  0  0
  -10.5328    0.4334    0.0000 H   0  0  0  0  0  0  0  0  0  0  0  0
  -12.9781    2.5437    0.0000 H   0  0  0  0  0  0  0  0  0  0  0  0
  -13.6120    1.1842    0.0000 H   0  0  0  0  0  0  0  0  0  0  0  0
  -11.5014    0.0809    0.0000 H   0  0  0  0  0  0  0  0  0  0  0  0
  -13.5204   -2.1686    0.0000 H   0  0  0  0  0  0  0  0  0  0  0  0
  -14.2459   -0.1752    0.0000 H   0  0  0  0  0  0  0  0  0  0  0  0
  -11.5270   -1.4431    0.0000 H   0  0  0  0  0  0  0  0  0  0  0  0
  -12.9072    4.1657    0.0000 H   0  0  0  0  0  0  0  0  0  0  0  0
  -10.5912    5.2903    0.0000 H   0  0  0  0  0  0  0  0  0  0  0  0
  -14.4521    5.1997    0.0000 H   0  0  0  0  0  0  0  0  0  0  0  0
  -15.4782    8.0188    0.0000 H   0  0  0  0  0  0  0  0  0  0  0  0
  -13.0368    8.9074    0.0000 H   0  0  0  0  0  0  0  0  0  0  0  0
   -8.7828    2.3616    0.0000 H   0  0  0  0  0  0  0  0  0  0  0  0
   -7.6318    3.3608    0.0000 H   0  0  0  0  0  0  0  0  0  0  0  0
   -9.9186    4.5743    0.0000 H   0  0  0  0  0  0  0  0  0  0  0  0
   -7.0853    4.5593    0.0000 H   0  0  0  0  0  0  0  0  0  0  0  0
   -9.6294    6.1491    0.0000 H   0  0  0  0  0  0  0  0  0  0  0  0
   -8.9154    7.3474    0.0000 H   0  0  0  0  0  0  0  0  0  0  0  0
   -5.3033    8.4083    0.0000 H   0  0  0  0  0  0  0  0  0  0  0  0
   -8.3835   10.2318    0.0000 H   0  0  0  0  0  0  0  0  0  0  0  0
   -6.2944    9.8634    0.0000 H   0  0  0  0  0  0  0  0  0  0  0  0
   -8.7151    8.3693    0.0000 H   0  0  0  0  0  0  0  0  0  0  0  0
   -6.1373    4.0828    0.0000 H   0  0  0  0  0  0  0  0  0  0  0  0
   -4.1532    6.3255    0.0000 H   0  0  0  0  0  0  0  0  0  0  0  0
   -1.3924    5.3197    0.0000 H   0  0  0  0  0  0  0  0  0  0  0  0
   -3.2663    5.9831    0.0000 H   0  0  0  0  0  0  0  0  0  0  0  0
   -2.3161    3.1435    0.0000 H   0  0  0  0  0  0  0  0  0  0  0  0
   -6.0357    2.8860    0.0000 H   0  0  0  0  0  0  0  0  0  0  0  0
   -5.8596    0.8727    0.0000 H   0  0  0  0  0  0  0  0  0  0  0  0
   -3.9472   -0.1656    0.0000 H   0  0  0  0  0  0  0  0  0  0  0  0
   -2.3216    3.3500    0.0000 H   0  0  0  0  0  0  0  0  0  0  0  0
   -3.0448   -0.1214    0.0000 H   0  0  0  0  0  0  0  0  0  0  0  0
   -2.2427   -0.9235    0.0000 H   0  0  0  0  0  0  0  0  0  0  0  0
   -0.0000   -2.5607    0.0000 H   0  0  0  0  0  0  0  0  0  0  0  0
    2.1213    1.0607    0.0000 H   0  0  0  0  0  0  0  0  0  0  0  0
    2.1213   -1.0607    0.0000 H   0  0  0  0  0  0  0  0  0  0  0  0
   -1.9841   -1.1820    0.0000 H   0  0  0  0  0  0  0  0  0  0  0  0
   -2.3465    0.7725    0.0000 H   0  0  0  0  0  0  0  0  0  0  0  0
   -2.1213    3.1820    0.0000 H   0  0  0  0  0  0  0  0  0  0  0  0
    0.9235    1.9999    0.0000 H   0  0  0  0  0  0  0  0  0  0  0  0
   -0.2882    5.5284    0.0000 H   0  0  0  0  0  0  0  0  0  0  0  0
   -3.0448    6.4853    0.0000 H   0  0  0  0  0  0  0  0  0  0  0  0
   -1.1979    6.4853    0.0000 H   0  0  0  0  0  0  0  0  0  0  0  0
   -2.8938    4.0175    0.0000 H   0  0  0  0  0  0  0  0  0  0  0  0
    0.9235    6.4853    0.0000 H   0  0  0  0  0  0  0  0  0  0  0  0
   -0.9235    6.4853    0.0000 H   0  0  0  0  0  0  0  0  0  0  0  0
    3.1820    2.1213    0.0000 H   0  0  0  0  0  0  0  0  0  0  0  0
    3.3034    4.1054    0.0000 H   0  0  0  0  0  0  0  0  0  0  0  0
    1.1979    1.9999    0.0000 H   0  0  0  0  0  0  0  0  0  0  0  0
    3.1820    6.3640    0.0000 H   0  0  0  0  0  0  0  0  0  0  0  0
    3.3034    4.3798    0.0000 H   0  0  0  0  0  0  0  0  0  0  0  0
    1.1979    6.4853    0.0000 H   0  0  0  0  0  0  0  0  0  0  0  0
  1  2  2  3
  2  3  1  0
  3  4  1  0
  4  5  1  0
  4  6  1  0
  6  7  1  0
  7  8  1  0
  8  9  1  0
  8 10  1  0
 10 11  1  0
 11 12  1  0
 12 13  1  0
 11 14  1  0
 14 15  1  0
 15 16  1  0
 16 17  1  0
 17 18  2  3
 14 19  1  0
 19 20  1  0
 20 21  1  0
 21 22  1  0
 22 23  1  0
 23 24  1  0
 23 25  1  0
 25 26  1  0
 26 27  1  0
 27 28  1  0
 27 29  1  0
 29 30  1  0
 30 31  1  0
 31 32  1  0
 32 33  1  0
 33 34  1  0
 34 35  1  0
 35 36  1  0
 36 37  1  0
 36 38  1  0
 38 39  1  0
 39 40  1  0
 40 41  1  0
 40 42  1  0
 42 43  1  0
 43 44  1  0
 43 45  1  0
 19 10  1  0
 25 22  1  0
 31 29  1  0
 38 32  1  0
 43 39  1  0
 36 33  1  0
 37 34  1  0
  1 46  1  0
  1 47  1  0
  2 48  1  0
  3 49  1  0
  3 50  1  0
  4 51  1  0
  5 52  1  0
  6 53  1  0
  6 54  1  0
  8 55  1  0
 10 56  1  0
 11 57  1  0
 12 58  1  0
 12 59  1  0
 13 60  1  0
 13 61  1  0
 13 62  1  0
 15 63  1  0
 15 64  1  0
 17 65  1  0
 18 66  1  0
 18 67  1  0
 19 68  1  0
 20 69  1  0
 20 70  1  0
 21 71  1  0
 21 72  1  0
 22 73  1  0
 23 74  1  0
 24 75  1  0
 24 76  1  0
 24 77  1  0
 26 78  1  0
 26 79  1  0
 28 80  1  0
 28 81  1  0
 28 82  1  0
 29 83  1  0
 30 84  1  0
 30 85  1  0
 31 86  1  0
 32 87  1  0
 33 88  1  0
 34 89  1  0
 35 90  1  0
 35 91  1  0
 37 92  1  0
 37 93  1  0
 38 94  1  0
 39 95  1  0
 40 96  1  0
 41 97  1  0
 41 98  1  0
 41 99  1  0
 42100  1  0
 42101  1  0
 44102  1  0
 44103  1  0
 44104  1  0
 45105  1  0
 45106  1  0
 45107  1  0
M  END
$$$$
