
     RDKit          2D

110118  0  0  0  0  0  0  0  0999 V2000
    5.0604  -10.3887    0.0000 C   0  0  0  0  0  0  0  0  0  0  0  0
    3.6901   -9.7786    0.0000 C   0  0  0  0  0  0  0  0  0  0  0  0
    2.4766  -10.6603    0.0000 C   0  0  0  0  0  0  0  0  0  0  0  0
    3.5333   -8.2868    0.0000 C   0  0  0  0  0  0  0  0  0  0  0  0
    3.3765   -6.7951    0.0000 C   0  0  0  0  0  0  0  0  0  0  0  0
    3.2197   -5.3033    0.0000 C   0  0  0  0  0  0  0  0  0  0  0  0
    3.0629   -3.8115    0.0000 C   0  0  0  0  0  0  0  0  0  0  0  0
    2.9062   -2.3197    0.0000 C   0  0  0  0  0  0  0  0  0  0  0  0
    2.7494   -0.8279    0.0000 C   0  0  0  0  0  0  0  0  0  0  0  0
    2.5926    0.6639    0.0000 C   0  0  0  0  0  0  0  0  0  0  0  0
    2.4358    2.1556    0.0000 C   0  0  0  0  0  0  0  0  0  0  0  0
    2.2790    3.6474    0.0000 C   0  0  0  0  0  0  0  0  0  0  0  0
    2.1222    5.1392    0.0000 C   0  0  0  0  0  0  0  0  0  0  0  0
    0.7872    3.4906    0.0000 N   0  0  0  0  0  0  0  0  0  0  0  0
   -0.0945    4.7042    0.0000 C   0  0  0  0  0  0  0  0  0  0  0  0
   -0.9762    5.9177    0.0000 C   0  0  0  0  0  0  0  0  0  0  0  0
    0.1386    6.9214    0.0000 C   0  0  0  0  0  0  0  0  0  0  0  0
   -1.2880    7.3849    0.0000 C   0  0  0  0  0  0  0  0  0  0  0  0
   -2.7798    7.5417    0.0000 C   0  0  0  0  0  0  0  0  0  0  0  0
   -4.2064    8.0052    0.0000 C   0  0  0  0  0  0  0  0  0  0  0  0
   -5.3884    8.9287    0.0000 C   0  0  0  0  0  0  0  0  0  0  0  0
   -3.9976    9.4906    0.0000 C   0  0  0  0  0  0  0  0  0  0  0  0
   -4.3095   10.9579    0.0000 C   0  0  0  0  0  0  0  0  0  0  0  0
   -4.1007   12.4433    0.0000 C   0  0  0  0  0  0  0  0  0  0  0  0
   -5.5273   12.9068    0.0000 As  0  0  0  0  0  3  0  0  0  0  0  0
   -2.9187   11.5198    0.0000 C   0  0  0  0  0  0  0  0  0  0  0  0
   -1.8040   12.5235    0.0000 C   0  0  0  0  0  0  0  0  0  0  0  0
   -0.3774   12.0599    0.0000 C   0  0  0  0  0  0  0  0  0  0  0  0
   -2.1159   13.9907    0.0000 C   0  0  0  0  0  0  0  0  0  0  0  0
   -2.4277   15.4579    0.0000 N   0  0  0  0  0  0  0  0  0  0  0  0
   -3.3899    6.1714    0.0000 C   0  0  0  0  0  0  0  0  0  0  0  0
   -4.8571    6.4833    0.0000 C   0  0  0  0  0  0  0  0  0  0  0  0
   -4.3936    5.0567    0.0000 C   0  0  0  0  0  0  0  0  0  0  0  0
   -3.2789    4.0530    0.0000 C   0  0  0  0  0  0  0  0  0  0  0  0
   -2.2752    5.1677    0.0000 C   0  0  0  0  0  0  0  0  0  0  0  0
    4.7115   -5.1465    0.0000 C   0  0  0  0  0  0  0  0  0  0  0  0
    6.2033   -4.9897    0.0000 C   0  0  0  0  0  0  0  0  0  0  0  0
    7.6951   -5.1465    0.0000 Mg  0  0  0  0  0  2  0  0  0  0  0  0
    8.0011   -3.7442    0.0000 C   0  0  0  0  0  0  0  0  0  0  0  0
    6.8354   -4.6882    0.0000 C   0  0  0  0  0  0  0  0  0  0  0  0
    5.6697   -5.6322    0.0000 C   0  0  0  0  0  0  0  0  0  0  0  0
    4.5040   -6.5761    0.0000 C   0  0  0  0  0  0  0  0  0  0  0  0
    5.8914   -3.5225    0.0000 C   0  0  0  0  0  0  0  0  0  0  0  0
    5.6568   -2.0409    0.0000 C   0  0  0  0  0  0  0  0  0  0  0  0
    7.0572   -2.5785    0.0000 C   0  0  0  0  0  0  0  0  0  0  0  0
    5.2172  -11.8805    0.0000 H   0  0  0  0  0  0  0  0  0  0  0  0
    6.2740   -9.5070    0.0000 H   0  0  0  0  0  0  0  0  0  0  0  0
    1.2631  -11.5420    0.0000 H   0  0  0  0  0  0  0  0  0  0  0  0
    3.3583  -11.8738    0.0000 H   0  0  0  0  0  0  0  0  0  0  0  0
    1.5949   -9.4468    0.0000 H   0  0  0  0  0  0  0  0  0  0  0  0
    2.0415   -8.4436    0.0000 H   0  0  0  0  0  0  0  0  0  0  0  0
    5.0331   -8.3131    0.0000 H   0  0  0  0  0  0  0  0  0  0  0  0
    1.8847   -6.9518    0.0000 H   0  0  0  0  0  0  0  0  0  0  0  0
    4.1465   -7.0014    0.0000 H   0  0  0  0  0  0  0  0  0  0  0  0
    1.7280   -5.4601    0.0000 H   0  0  0  0  0  0  0  0  0  0  0  0
    1.5712   -3.9683    0.0000 H   0  0  0  0  0  0  0  0  0  0  0  0
    4.4725   -3.2984    0.0000 H   0  0  0  0  0  0  0  0  0  0  0  0
    1.4144   -2.4765    0.0000 H   0  0  0  0  0  0  0  0  0  0  0  0
    4.3677   -1.9822    0.0000 H   0  0  0  0  0  0  0  0  0  0  0  0
    1.2576   -0.9847    0.0000 H   0  0  0  0  0  0  0  0  0  0  0  0
    4.2411   -0.6711    0.0000 H   0  0  0  0  0  0  0  0  0  0  0  0
    1.1008    0.5071    0.0000 H   0  0  0  0  0  0  0  0  0  0  0  0
    4.0843    0.8207    0.0000 H   0  0  0  0  0  0  0  0  0  0  0  0
    0.9742    1.8182    0.0000 H   0  0  0  0  0  0  0  0  0  0  0  0
    3.9276    2.3124    0.0000 H   0  0  0  0  0  0  0  0  0  0  0  0
    3.7708    3.8042    0.0000 H   0  0  0  0  0  0  0  0  0  0  0  0
    2.1484    6.6390    0.0000 H   0  0  0  0  0  0  0  0  0  0  0  0
    3.6140    5.2960    0.0000 H   0  0  0  0  0  0  0  0  0  0  0  0
    0.6733    5.5276    0.0000 H   0  0  0  0  0  0  0  0  0  0  0  0
    0.0146    2.2049    0.0000 H   0  0  0  0  0  0  0  0  0  0  0  0
    1.1190    5.5858    0.0000 H   0  0  0  0  0  0  0  0  0  0  0  0
   -1.1915    3.6811    0.0000 H   0  0  0  0  0  0  0  0  0  0  0  0
    1.5089    6.3114    0.0000 H   0  0  0  0  0  0  0  0  0  0  0  0
    0.8428    8.2458    0.0000 H   0  0  0  0  0  0  0  0  0  0  0  0
   -0.9762    8.8521    0.0000 H   0  0  0  0  0  0  0  0  0  0  0  0
   -2.2914    8.9600    0.0000 H   0  0  0  0  0  0  0  0  0  0  0  0
   -5.2101    6.8906    0.0000 H   0  0  0  0  0  0  0  0  0  0  0  0
   -6.5031    7.9250    0.0000 H   0  0  0  0  0  0  0  0  0  0  0  0
   -6.3324   10.0944    0.0000 H   0  0  0  0  0  0  0  0  0  0  0  0
   -2.4985    9.5430    0.0000 H   0  0  0  0  0  0  0  0  0  0  0  0
   -5.8038   11.0886    0.0000 H   0  0  0  0  0  0  0  0  0  0  0  0
   -3.5632   13.8436    0.0000 H   0  0  0  0  0  0  0  0  0  0  0  0
   -5.8392   14.3740    0.0000 H   0  0  0  0  0  0  0  0  0  0  0  0
   -6.6420   11.9031    0.0000 H   0  0  0  0  0  0  0  0  0  0  0  0
   -1.9747   10.3541    0.0000 H   0  0  0  0  0  0  0  0  0  0  0  0
    0.7373   13.0636    0.0000 H   0  0  0  0  0  0  0  0  0  0  0  0
   -0.0656   10.5927    0.0000 H   0  0  0  0  0  0  0  0  0  0  0  0
   -0.6487   14.3025    0.0000 H   0  0  0  0  0  0  0  0  0  0  0  0
   -3.6102   13.8600    0.0000 H   0  0  0  0  0  0  0  0  0  0  0  0
   -1.3130   16.4616    0.0000 H   0  0  0  0  0  0  0  0  0  0  0  0
   -3.8543   15.9214    0.0000 H   0  0  0  0  0  0  0  0  0  0  0  0
   -5.1691    7.9505    0.0000 H   0  0  0  0  0  0  0  0  0  0  0  0
   -6.3425    6.2745    0.0000 H   0  0  0  0  0  0  0  0  0  0  0  0
   -5.6516    4.2397    0.0000 H   0  0  0  0  0  0  0  0  0  0  0  0
   -2.1642    3.0493    0.0000 H   0  0  0  0  0  0  0  0  0  0  0  0
   -4.2826    2.9383    0.0000 H   0  0  0  0  0  0  0  0  0  0  0  0
   -1.4804    3.8956    0.0000 H   0  0  0  0  0  0  0  0  0  0  0  0
    4.5547   -3.6547    0.0000 H   0  0  0  0  0  0  0  0  0  0  0  0
    4.6853   -6.6462    0.0000 H   0  0  0  0  0  0  0  0  0  0  0  0
    6.3861   -6.4785    0.0000 H   0  0  0  0  0  0  0  0  0  0  0  0
    9.4929   -3.9010    0.0000 H   0  0  0  0  0  0  0  0  0  0  0  0
    7.4693   -6.0477    0.0000 H   0  0  0  0  0  0  0  0  0  0  0  0
    4.7257   -4.4664    0.0000 H   0  0  0  0  0  0  0  0  0  0  0  0
    6.4645   -6.9043    0.0000 H   0  0  0  0  0  0  0  0  0  0  0  0
    3.9180   -7.9570    0.0000 H   0  0  0  0  0  0  0  0  0  0  0  0
    5.5830   -7.6181    0.0000 H   0  0  0  0  0  0  0  0  0  0  0  0
    3.3060   -5.6735    0.0000 H   0  0  0  0  0  0  0  0  0  0  0  0
    4.1714   -1.8321    0.0000 H   0  0  0  0  0  0  0  0  0  0  0  0
    5.9430   -0.5685    0.0000 H   0  0  0  0  0  0  0  0  0  0  0  0
    7.9388   -1.3650    0.0000 H   0  0  0  0  0  0  0  0  0  0  0  0
  1  2  2  3
  2  3  1  0
  2  4  1  0
  4  5  1  0
  5  6  1  0
  6  7  1  0
  7  8  1  0
  8  9  1  0
  9 10  1  0
 10 11  1  0
 11 12  1  0
 12 13  1  0
 12 14  1  0
 14 15  1  0
 15 16  1  0
 16 17  1  0
 17 18  1  0
 18 19  1  0
 19 20  1  0
 20 21  1  0
 21 22  1  0
 22 23  1  0
 23 24  1  0
 24 25  1  0
 24 26  1  0
 26 27  1  0
 27 28  2  3
 27 29  1  0
 29 30  1  0
 19 31  1  0
 31 32  1  0
 32 33  1  0
 33 34  1  0
 34 35  1  0
  6 36  1  0
 36 37  1  0
 37 38  1  0
 38 39  1  0
 39 40  1  0
 40 41  1  0
 41 42  1  0
 40 43  1  0
 43 44  1  0
 44 45  1  0
 18 16  1  0
 22 20  1  0
 26 23  1  0
 33 31  1  0
 43 37  1  0
 35 16  1  0
 45 39  1  0
 35 31  1  0
 45 43  1  0
  1 46  1  0
  1 47  1  0
  3 48  1  0
  3 49  1  0
  3 50  1  0
  4 51  1  0
  4 52  1  0
  5 53  1  0
  5 54  1  0
  6 55  1  0
  7 56  1  0
  7 57  1  0
  8 58  1  0
  8 59  1  0
  9 60  1  0
  9 61  1  0
 10 62  1  0
 10 63  1  0
 11 64  1  0
 11 65  1  0
 12 66  1  0
 13 67  1  0
 13 68  1  0
 13 69  1  0
 14 70  1  0
 15 71  1  0
 15 72  1  0
 17 73  1  0
 17 74  1  0
 18 75  1  0
 19 76  1  0
 20 77  1  0
 21 78  1  0
 21 79  1  0
 22 80  1  0
 23 81  1  0
 24 82  1  0
 25 83  1  0
 25 84  1  0
 26 85  1  0
 28 86  1  0
 28 87  1  0
 29 88  1  0
 29 89  1  0
 30 90  1  0
 30 91  1  0
 32 92  1  0
 32 93  1  0
 33 94  1  0
 34 95  1  0
 34 96  1  0
 35 97  1  0
 36 98  1  0
 36 99  1  0
 37100  1  0
 39101  1  0
 40102  1  0
 41103  1  0
 41104  1  0
 42105  1  0
 42106  1  0
 42107  1  0
 44108  1  0
 44109  1  0
 45110  1  0
M  END
$$$$
