
     RDKit          2D

 88 94  0  0  0  0  0  0  0  0999 V2000
    3.3649   10.7021    0.0000 C   0  0  0  0  0  0  0  0  0  0  0  0
    2.4007    9.5530    0.0000 C   0  0  0  0  0  0  0  0  0  0  0  0
    1.4365    8.4039    0.0000 C   0  0  0  0  0  0  0  0  0  0  0  0
    0.4723    7.2549    0.0000 S   0  0  0  0  0  4  0  0  0  0  0  0
   -0.8267    6.5049    0.0000 C   0  0  0  0  0  0  0  0  0  0  0  0
   -0.8267    5.0049    0.0000 O   0  0  0  0  0  0  0  0  0  0  0  0
    0.4723    4.2549    0.0000 C   0  0  0  0  0  0  0  0  0  0  0  0
    1.7714    5.0049    0.0000 C   0  0  0  0  0  0  0  0  0  0  0  0
    2.5214    3.7058    0.0000 C   0  0  0  0  0  0  0  0  0  0  0  0
    1.2223    2.9558    0.0000 C   0  0  0  0  0  0  0  0  0  0  0  0
   -0.0767    2.2058    0.0000 C   0  0  0  0  0  0  0  0  0  0  0  0
   -1.3758    1.4558    0.0000 C   0  0  0  0  0  0  0  0  0  0  0  0
   -2.6748    0.7058    0.0000 C   0  0  0  0  0  0  0  0  0  0  0  0
   -3.9738   -0.0442    0.0000 C   0  0  0  0  0  0  0  0  0  0  0  0
   -5.2729   -0.7942    0.0000 C   0  0  0  0  0  0  0  0  0  0  0  0
   -4.7238    1.2549    0.0000 C   0  0  0  0  0  0  0  0  0  0  0  0
   -5.4738    2.5539    0.0000 O   0  0  0  0  0  0  0  0  0  0  0  0
   -1.9248   -0.5932    0.0000 C   0  0  0  0  0  0  0  0  0  0  0  0
   -2.5349   -1.9635    0.0000 C   0  0  0  0  0  0  0  0  0  0  0  0
   -1.4202   -2.9672    0.0000 C   0  0  0  0  0  0  0  0  0  0  0  0
   -0.1211   -2.2172    0.0000 C   0  0  0  0  0  0  0  0  0  0  0  0
    1.3706   -2.3740    0.0000 C   0  0  0  0  0  0  0  0  0  0  0  0
    2.8734   -2.2294    0.0000 C   0  0  0  0  0  0  0  0  0  0  0  0
    3.3369   -0.8028    0.0000 C   0  0  0  0  0  0  0  0  0  0  0  0
    2.3332    0.3119    0.0000 C   0  0  0  0  0  0  0  0  0  0  0  0
    0.8660    0.0000    0.0000 C   0  0  0  0  0  0  0  0  0  0  0  0
    1.9807   -1.0037    0.0000 C   0  0  0  0  0  0  0  0  0  0  0  0
   -0.4330    0.7500    0.0000 C   0  0  0  0  0  0  0  0  0  0  0  0
   -0.4330   -0.7500    0.0000 C   0  0  0  0  0  0  0  0  0  0  0  0
    0.4723    4.2549    0.0000 C   0  0  0  0  0  0  0  0  0  0  0  0
   -0.2777    5.5539    0.0000 C   0  0  0  0  0  0  0  0  0  0  0  0
   -1.7777    5.5539    0.0000 P   0  0  0  0  0  0  0  0  0  0  0  0
   -0.8267    3.5049    0.0000 C   0  0  0  0  0  0  0  0  0  0  0  0
   -2.1258    2.7549    0.0000 C   0  0  0  0  0  0  0  0  0  0  0  0
   -1.5767    4.8039    0.0000 O   0  0  0  0  0  0  0  0  0  0  0  0
   -3.0767    4.8039    0.0000 O   0  0  0  0  0  0  0  0  0  0  0  0
   -3.8267    6.1029    0.0000 O   0  0  0  0  0  0  0  0  0  0  0  0
    1.7714    6.5049    0.0000 N   0  0  0  0  0  0  0  0  0  0  0  0
    4.3290   11.8511    0.0000 H   0  0  0  0  0  0  0  0  0  0  0  0
    2.2158   11.6663    0.0000 H   0  0  0  0  0  0  0  0  0  0  0  0
    4.5139    9.7379    0.0000 H   0  0  0  0  0  0  0  0  0  0  0  0
    1.2516   10.5172    0.0000 H   0  0  0  0  0  0  0  0  0  0  0  0
    3.5497    8.5888    0.0000 H   0  0  0  0  0  0  0  0  0  0  0  0
    2.6945    7.5870    0.0000 H   0  0  0  0  0  0  0  0  0  0  0  0
    0.2874    9.3681    0.0000 H   0  0  0  0  0  0  0  0  0  0  0  0
   -0.4919    8.4039    0.0000 H   0  0  0  0  0  0  0  0  0  0  0  0
   -1.3397    7.9144    0.0000 H   0  0  0  0  0  0  0  0  0  0  0  0
   -2.2991    6.7912    0.0000 H   0  0  0  0  0  0  0  0  0  0  0  0
    0.8605    5.7038    0.0000 H   0  0  0  0  0  0  0  0  0  0  0  0
    3.2202    5.3931    0.0000 H   0  0  0  0  0  0  0  0  0  0  0  0
    3.2714    2.4068    0.0000 H   0  0  0  0  0  0  0  0  0  0  0  0
    3.8204    4.4558    0.0000 H   0  0  0  0  0  0  0  0  0  0  0  0
    0.6733    0.9068    0.0000 H   0  0  0  0  0  0  0  0  0  0  0  0
   -1.1188    3.2848    0.0000 H   0  0  0  0  0  0  0  0  0  0  0  0
   -0.3337    0.3769    0.0000 H   0  0  0  0  0  0  0  0  0  0  0  0
   -2.4178    2.5348    0.0000 H   0  0  0  0  0  0  0  0  0  0  0  0
   -3.4248    2.0049    0.0000 H   0  0  0  0  0  0  0  0  0  0  0  0
   -3.3878   -1.4249    0.0000 H   0  0  0  0  0  0  0  0  0  0  0  0
   -6.5719   -1.5442    0.0000 H   0  0  0  0  0  0  0  0  0  0  0  0
   -6.1756    0.4038    0.0000 H   0  0  0  0  0  0  0  0  0  0  0  0
   -4.5229   -2.0932    0.0000 H   0  0  0  0  0  0  0  0  0  0  0  0
   -6.1046    0.6688    0.0000 H   0  0  0  0  0  0  0  0  0  0  0  0
   -3.6449    2.2969    0.0000 H   0  0  0  0  0  0  0  0  0  0  0  0
   -6.9738    2.5539    0.0000 H   0  0  0  0  0  0  0  0  0  0  0  0
   -3.9157   -1.3775    0.0000 H   0  0  0  0  0  0  0  0  0  0  0  0
   -3.4166   -3.1771    0.0000 H   0  0  0  0  0  0  0  0  0  0  0  0
   -2.5349   -3.9709    0.0000 H   0  0  0  0  0  0  0  0  0  0  0  0
   -0.6930   -4.2792    0.0000 H   0  0  0  0  0  0  0  0  0  0  0  0
    0.3672   -3.6355    0.0000 H   0  0  0  0  0  0  0  0  0  0  0  0
    1.9567   -3.7548    0.0000 H   0  0  0  0  0  0  0  0  0  0  0  0
    4.3588   -2.4382    0.0000 H   0  0  0  0  0  0  0  0  0  0  0  0
    3.1081   -3.7110    0.0000 H   0  0  0  0  0  0  0  0  0  0  0  0
    4.2604    0.3792    0.0000 H   0  0  0  0  0  0  0  0  0  0  0  0
    4.6614   -1.5071    0.0000 H   0  0  0  0  0  0  0  0  0  0  0  0
    1.7713    1.7026    0.0000 H   0  0  0  0  0  0  0  0  0  0  0  0
    3.6053    1.1067    0.0000 H   0  0  0  0  0  0  0  0  0  0  0  0
    3.1299   -0.0396    0.0000 H   0  0  0  0  0  0  0  0  0  0  0  0
    3.4227   -1.4171    0.0000 H   0  0  0  0  0  0  0  0  0  0  0  0
   -1.0191    2.1308    0.0000 H   0  0  0  0  0  0  0  0  0  0  0  0
    1.5513    5.2969    0.0000 H   0  0  0  0  0  0  0  0  0  0  0  0
    0.7644    6.6329    0.0000 H   0  0  0  0  0  0  0  0  0  0  0  0
   -2.6804    6.7518    0.0000 H   0  0  0  0  0  0  0  0  0  0  0  0
   -0.4133    2.0630    0.0000 H   0  0  0  0  0  0  0  0  0  0  0  0
   -3.5677    2.3415    0.0000 H   0  0  0  0  0  0  0  0  0  0  0  0
   -3.1678    3.8338    0.0000 H   0  0  0  0  0  0  0  0  0  0  0  0
   -1.8912    1.2733    0.0000 H   0  0  0  0  0  0  0  0  0  0  0  0
   -5.3267    6.1029    0.0000 H   0  0  0  0  0  0  0  0  0  0  0  0
    3.1521    7.0909    0.0000 H   0  0  0  0  0  0  0  0  0  0  0  0
  1  2  1  0
  2  3  1  0
  3  4  1  0
  4  5  1  0
  5  6  1  0
  6  7  1  0
  7  8  1  0
  8  9  1  0
  9 10  1  0
 10 11  1  0
 11 12  1  0
 12 13  1  0
 13 14  1  0
 14 15  1  0
 14 16  1  0
 16 17  1  0
 13 18  1  0
 18 19  1  0
 19 20  1  0
 20 21  1  0
 21 22  1  0
 22 23  1  0
 23 24  1  0
 24 25  1  0
 25 26  1  0
 26 27  1  0
 26 28  1  0
 28 29  1  0
 10 30  1  0
 30 31  1  0
 31 32  2  3
 30 33  1  0
 33 34  1  0
 33 35  1  0
 35 36  1  0
 36 37  1  0
  8 38  1  0
 38  4  1  0
 10  7  1  0
 28 18  1  0
 29 18  1  0
 29 21  1  0
 27 22  1  0
 29 26  1  0
  1 39  1  0
  1 40  1  0
  1 41  1  0
  2 42  1  0
  2 43  1  0
  3 44  1  0
  3 45  1  0
  4 46  1  0
  5 47  1  0
  5 48  1  0
  7 49  1  0
  8 50  1  0
  9 51  1  0
  9 52  1  0
 11 53  1  0
 11 54  1  0
 12 55  1  0
 12 56  1  0
 13 57  1  0
 14 58  1  0
 15 59  1  0
 15 60  1  0
 15 61  1  0
 16 62  1  0
 16 63  1  0
 17 64  1  0
 19 65  1  0
 19 66  1  0
 20 67  1  0
 20 68  1  0
 21 69  1  0
 22 70  1  0
 23 71  1  0
 23 72  1  0
 24 73  1  0
 24 74  1  0
 25 75  1  0
 25 76  1  0
 27 77  1  0
 27 78  1  0
 28 79  1  0
 30 80  1  0
 31 81  1  0
 32 82  1  0
 33 83  1  0
 34 84  1  0
 34 85  1  0
 34 86  1  0
 37 87  1  0
 38 88  1  0
M  END
$$$$
