
     RDKit          2D

 33 34  0  0  0  0  0  0  0  0999 V2000
    7.1872   -6.3215    0.0000 C   0  0  0  0  0  0  0  0  0  0  0  0
    5.6929   -6.4522    0.0000 C   0  0  0  0  0  0  0  0  0  0  0  0
    4.1986   -6.5830    0.0000 C   0  0  0  0  0  0  0  0  0  0  0  0
    2.7043   -6.7137    0.0000 P   0  0  0  0  0  0  0  0  0  0  0  0
    1.4756   -7.5741    0.0000 C   0  0  0  0  0  0  0  0  0  0  0  0
    1.3449   -6.0798    0.0000 C   0  0  0  0  0  0  0  0  0  0  0  0
    1.7331   -4.6309    0.0000 C   0  0  0  0  0  0  0  0  0  0  0  0
    0.6724   -3.5702    0.0000 C   0  0  0  0  0  0  0  0  0  0  0  0
    1.0607   -2.1213    0.0000 O   0  0  0  0  0  0  0  0  0  0  0  0
   -0.0000   -1.0607    0.0000 C   0  0  0  0  0  0  0  0  0  0  0  0
    1.0607    0.0000    0.0000 C   0  0  0  0  0  0  0  0  0  0  0  0
    0.0000    1.0607    0.0000 O   0  0  0  0  0  0  0  0  0  0  0  0
   -1.0607    0.0000    0.0000 C   0  0  0  0  0  0  0  0  0  0  0  0
   -2.1213   -1.0607    0.0000 C   0  0  0  0  0  0  0  0  0  0  0  0
    8.6815   -6.1908    0.0000 H   0  0  0  0  0  0  0  0  0  0  0  0
    7.0565   -4.8272    0.0000 H   0  0  0  0  0  0  0  0  0  0  0  0
    7.3179   -7.8158    0.0000 H   0  0  0  0  0  0  0  0  0  0  0  0
    5.5622   -4.9579    0.0000 H   0  0  0  0  0  0  0  0  0  0  0  0
    5.8236   -7.9465    0.0000 H   0  0  0  0  0  0  0  0  0  0  0  0
    4.0679   -5.0887    0.0000 H   0  0  0  0  0  0  0  0  0  0  0  0
    4.3294   -8.0772    0.0000 H   0  0  0  0  0  0  0  0  0  0  0  0
    0.0267   -7.9623    0.0000 H   0  0  0  0  0  0  0  0  0  0  0  0
    2.1095   -8.9335    0.0000 H   0  0  0  0  0  0  0  0  0  0  0  0
   -0.1494   -5.9490    0.0000 H   0  0  0  0  0  0  0  0  0  0  0  0
    3.1820   -4.2426    0.0000 H   0  0  0  0  0  0  0  0  0  0  0  0
   -0.7765   -3.9584    0.0000 H   0  0  0  0  0  0  0  0  0  0  0  0
   -0.5453   -1.7586    0.0000 H   0  0  0  0  0  0  0  0  0  0  0  0
    2.1213    1.0607    0.0000 H   0  0  0  0  0  0  0  0  0  0  0  0
    2.1213   -1.0607    0.0000 H   0  0  0  0  0  0  0  0  0  0  0  0
   -2.1213    1.0607    0.0000 H   0  0  0  0  0  0  0  0  0  0  0  0
   -3.1820   -2.1213    0.0000 H   0  0  0  0  0  0  0  0  0  0  0  0
   -3.1820    0.0000    0.0000 H   0  0  0  0  0  0  0  0  0  0  0  0
   -1.5760   -1.7586    0.0000 H   0  0  0  0  0  0  0  0  0  0  0  0
  1  2  1  0
  2  3  1  0
  3  4  1  0
  4  5  1  0
  5  6  1  0
  6  7  1  0
  7  8  2  3
  8  9  1  0
  9 10  1  0
 10 11  1  0
 11 12  1  0
 12 13  1  0
 13 14  1  0
  6  4  1  0
 13 10  1  0
  1 15  1  0
  1 16  1  0
  1 17  1  0
  2 18  1  0
  2 19  1  0
  3 20  1  0
  3 21  1  0
  5 22  1  0
  5 23  1  0
  6 24  1  1
  7 25  1  0
  8 26  1  0
 10 27  1  6
 11 28  1  0
 11 29  1  0
 13 30  1  6
 14 31  1  0
 14 32  1  0
 14 33  1  0
M  END
$$$$
