
     RDKit          2D

 25 28  0  0  0  0  0  0  0  0999 V2000
    1.8302    1.1491    0.0000 C   0  0  0  0  0  0  0  0  0  0  0  0
    0.8660    0.0000    0.0000 C   0  0  0  0  0  0  0  0  0  0  0  0
   -0.4330    0.7500    0.0000 C   0  0  0  0  0  0  0  0  0  0  0  0
   -1.7321    1.5000    0.0000 C   0  0  0  0  0  0  0  0  0  0  0  0
   -1.7321    0.0000    0.0000 C   0  0  0  0  0  0  0  0  0  0  0  0
   -0.4330   -0.7500    0.0000 C   0  0  0  0  0  0  0  0  0  0  0  0
   -0.4330   -2.2500    0.0000 C   0  0  0  0  0  0  0  0  0  0  0  0
   -0.4330   -3.7500    0.0000 C   0  0  0  0  0  0  0  0  0  0  0  0
   -1.9330   -2.2500    0.0000 C   0  0  0  0  0  0  0  0  0  0  0  0
   -3.3426   -2.7630    0.0000 C   0  0  0  0  0  0  0  0  0  0  0  0
   -2.1935   -3.7272    0.0000 O   0  0  0  0  0  0  0  0  0  0  0  0
    2.7944    2.2981    0.0000 H   0  0  0  0  0  0  0  0  0  0  0  0
    2.9793    0.1849    0.0000 H   0  0  0  0  0  0  0  0  0  0  0  0
    0.6811    2.1132    0.0000 H   0  0  0  0  0  0  0  0  0  0  0  0
    1.8302   -1.1491    0.0000 H   0  0  0  0  0  0  0  0  0  0  0  0
   -1.2190    2.9095    0.0000 H   0  0  0  0  0  0  0  0  0  0  0  0
   -3.2093    1.7605    0.0000 H   0  0  0  0  0  0  0  0  0  0  0  0
   -2.7386   -0.4272    0.0000 H   0  0  0  0  0  0  0  0  0  0  0  0
    1.0670   -2.2500    0.0000 H   0  0  0  0  0  0  0  0  0  0  0  0
   -0.4330   -5.2500    0.0000 H   0  0  0  0  0  0  0  0  0  0  0  0
   -1.2924   -3.9643    0.0000 H   0  0  0  0  0  0  0  0  0  0  0  0
    1.0670   -3.7500    0.0000 H   0  0  0  0  0  0  0  0  0  0  0  0
   -2.2527   -1.2043    0.0000 H   0  0  0  0  0  0  0  0  0  0  0  0
   -4.0926   -1.4640    0.0000 H   0  0  0  0  0  0  0  0  0  0  0  0
   -4.4916   -3.7272    0.0000 H   0  0  0  0  0  0  0  0  0  0  0  0
  1  2  1  0
  2  3  1  0
  3  4  1  1
  4  5  1  0
  5  6  1  0
  6  7  1  0
  7  8  1  0
  7  9  1  0
  9 10  1  0
 10 11  1  0
  6  2  1  0
 11  9  1  0
  5  3  1  0
  6  3  1  6
  1 12  1  0
  1 13  1  0
  1 14  1  0
  2 15  1  1
  4 16  1  0
  4 17  1  0
  5 18  1  6
  7 19  1  6
  8 20  1  0
  8 21  1  0
  8 22  1  0
  9 23  1  1
 10 24  1  0
 10 25  1  0
M  END
$$$$
