
     RDKit          3D

 16 18  0  0  0  0  0  0  0  0999 V2000
   19.5868  -15.1666   -3.7281 O   0  0  0  0  0  0  0  0  0  0  0  0
   19.4796  -14.3174   -4.6539 C   0  0  0  0  0  0  0  0  0  0  0  0
   18.5357  -13.3014   -4.5587 O   0  0  0  0  0  0  0  0  0  0  0  0
   21.8355  -14.2451   -5.5556 C   0  0  0  0  0  0  0  0  0  0  0  0
   22.5624  -15.3061   -6.2443 N   0  0  0  0  0  0  0  0  0  0  0  0
   21.6551  -17.4502   -5.4842 C   0  0  0  0  0  0  0  0  0  0  0  0
   22.6589  -18.5223   -5.5563 C   0  0  0  0  0  0  0  0  0  0  0  0
   24.4627  -19.7069   -6.6220 O   0  0  0  0  0  0  0  0  0  0  0  0
   23.6770  -18.5513   -6.7150 C   0  0  0  0  0  0  0  0  0  0  0  0
   21.2552  -18.8010   -5.9463 N   0  0  0  0  0  0  0  0  0  0  0  0
   21.5989  -16.3513   -6.5744 C   0  0  0  0  0  0  0  0  0  0  0  0
   20.2168  -15.7060   -6.6252 C   0  0  0  0  0  0  0  0  0  0  0  0
   13.9670   -5.0428  -14.4025 Cl  0  0  0  0  0  0  0  0  0  0  0  0
   17.6400   -8.3189   -2.9724 S   0  0  0  0  0  4  0  0  0  0  0  0
   20.3537  -14.3975   -5.8722 C   0  0  0  0  0  0  0  0  0  0  0  0
   11.1779    1.4043   -8.5597 C   0  0  0  0  0  0  0  0  0  0  0  0
  2  1  2  0
  3  2  1  0
  5  4  1  0
  7  6  1  0
  9  7  1  0
  9  8  1  0
 10  6  1  0
 10  7  1  0
 11  5  1  0
 11  6  1  0
 12 11  1  0
 14  5  1  0
 14 13  1  0
 15  2  1  0
 15  4  1  0
 15 12  1  0
 15 14  1  0
 16 14  1  0
M  END
$$$$
