
     RDKit          2D

 28 30  0  0  0  0  0  0  0  0999 V2000
   -1.3182   -2.9432    0.0000 C   0  0  0  0  0  0  0  0  0  0  0  0
   -1.4489   -1.4489    0.0000 C   0  0  0  0  0  0  0  0  0  0  0  0
   -0.0000   -1.0607    0.0000 C   0  0  0  0  0  0  0  0  0  0  0  0
    1.0607    0.0000    0.0000 O   0  0  0  0  0  0  0  0  0  0  0  0
    0.0000    1.0607    0.0000 C   0  0  0  0  0  0  0  0  0  0  0  0
   -1.0607    2.1213    0.0000 C   0  0  0  0  0  0  0  0  0  0  0  0
   -2.1213    3.1820    0.0000 C   0  0  0  0  0  0  0  0  0  0  0  0
   -3.3793    3.9989    0.0000 C   0  0  0  0  0  0  0  0  0  0  0  0
   -2.9911    5.4478    0.0000 C   0  0  0  0  0  0  0  0  0  0  0  0
   -1.4932    5.5263    0.0000 N   0  0  0  0  0  0  0  0  0  0  0  0
   -0.9556    4.1260    0.0000 C   0  0  0  0  0  0  0  0  0  0  0  0
   -1.0607    0.0000    0.0000 N   0  0  0  0  0  0  0  0  0  0  0  0
   -1.1874   -4.4375    0.0000 H   0  0  0  0  0  0  0  0  0  0  0  0
   -2.8124   -3.0739    0.0000 H   0  0  0  0  0  0  0  0  0  0  0  0
    0.1809   -2.9956    0.0000 H   0  0  0  0  0  0  0  0  0  0  0  0
   -2.9432   -1.3182    0.0000 H   0  0  0  0  0  0  0  0  0  0  0  0
    0.9028   -2.2586    0.0000 H   0  0  0  0  0  0  0  0  0  0  0  0
    1.0607    2.1213    0.0000 H   0  0  0  0  0  0  0  0  0  0  0  0
   -0.4325    2.6121    0.0000 H   0  0  0  0  0  0  0  0  0  0  0  0
   -2.1213    1.0607    0.0000 H   0  0  0  0  0  0  0  0  0  0  0  0
   -3.0653    2.0163    0.0000 H   0  0  0  0  0  0  0  0  0  0  0  0
   -4.0603    2.6624    0.0000 H   0  0  0  0  0  0  0  0  0  0  0  0
   -4.7797    4.5365    0.0000 H   0  0  0  0  0  0  0  0  0  0  0  0
   -4.4726    5.6825    0.0000 H   0  0  0  0  0  0  0  0  0  0  0  0
   -2.9126    6.9458    0.0000 H   0  0  0  0  0  0  0  0  0  0  0  0
   -0.6762    6.7843    0.0000 H   0  0  0  0  0  0  0  0  0  0  0  0
    0.3809    4.8069    0.0000 H   0  0  0  0  0  0  0  0  0  0  0  0
   -0.4432    3.5153    0.0000 H   0  0  0  0  0  0  0  0  0  0  0  0
  1  2  1  0
  2  3  1  0
  3  4  1  0
  4  5  1  0
  5  6  1  0
  6  7  1  0
  7  8  1  0
  8  9  1  0
  9 10  1  0
 10 11  1  0
  5 12  1  0
 12  2  1  0
 12  3  1  0
 11  7  1  0
  1 13  1  0
  1 14  1  0
  1 15  1  0
  2 16  1  0
  3 17  1  0
  5 18  1  0
  6 19  1  0
  6 20  1  0
  7 21  1  0
  8 22  1  0
  8 23  1  0
  9 24  1  0
  9 25  1  0
 10 26  1  0
 11 27  1  0
 11 28  1  0
M  END
$$$$
