
     RDKit          2D

 61 71  0  0  0  0  0  0  0  0999 V2000
    0.0490    6.6131    0.0000 C   0  0  0  0  0  0  0  0  0  0  0  0
   -0.2482    5.1429    0.0000 C   0  0  0  0  0  0  0  0  0  0  0  0
   -0.5454    3.6726    0.0000 C   0  0  0  0  0  0  0  0  0  0  0  0
   -2.0450    3.7100    0.0000 C   0  0  0  0  0  0  0  0  0  0  0  0
   -3.5222    3.9705    0.0000 C   0  0  0  0  0  0  0  0  0  0  0  0
   -4.9441    4.4482    0.0000 C   0  0  0  0  0  0  0  0  0  0  0  0
   -6.0687    3.4557    0.0000 C   0  0  0  0  0  0  0  0  0  0  0  0
   -4.6468    2.9780    0.0000 C   0  0  0  0  0  0  0  0  0  0  0  0
   -4.5721    1.4798    0.0000 C   0  0  0  0  0  0  0  0  0  0  0  0
   -6.0716    1.5172    0.0000 C   0  0  0  0  0  0  0  0  0  0  0  0
   -4.7214   -0.0127    0.0000 C   0  0  0  0  0  0  0  0  0  0  0  0
   -3.3542    0.6042    0.0000 C   0  0  0  0  0  0  0  0  0  0  0  0
   -1.9102    1.0105    0.0000 C   0  0  0  0  0  0  0  0  0  0  0  0
   -0.4330    0.7500    0.0000 C   0  0  0  0  0  0  0  0  0  0  0  0
    0.8660    0.0000    0.0000 C   0  0  0  0  0  0  0  0  0  0  0  0
    1.9807   -1.0037    0.0000 C   0  0  0  0  0  0  0  0  0  0  0  0
    1.2480   -1.1057    0.0000 C   0  0  0  0  0  0  0  0  0  0  0  0
    0.2625   -1.0022    0.0000 C   0  0  0  0  0  0  0  0  0  0  0  0
   -0.4330   -0.7500    0.0000 C   0  0  0  0  0  0  0  0  0  0  0  0
    0.5469   -1.7215    0.0000 C   0  0  0  0  0  0  0  0  0  0  0  0
   -1.4175   -3.5721    0.0000 O   0  0  0  0  0  0  0  0  0  0  0  0
    0.4536   -3.1056    0.0000 C   0  0  0  0  0  0  0  0  0  0  0  0
    1.8239   -2.4955    0.0000 P   0  0  0  0  0  0  0  0  0  0  0  0
   -0.4280   -4.3191    0.0000 C   0  0  0  0  0  0  0  0  0  0  0  0
    0.1821   -5.6894    0.0000 C   0  0  0  0  0  0  0  0  0  0  0  0
    1.6738   -5.8462    0.0000 C   0  0  0  0  0  0  0  0  0  0  0  0
    1.0637   -4.4759    0.0000 C   0  0  0  0  0  0  0  0  0  0  0  0
   -1.3276    2.3927    0.0000 C   0  0  0  0  0  0  0  0  0  0  0  0
    0.3462    8.0834    0.0000 H   0  0  0  0  0  0  0  0  0  0  0  0
    1.5193    6.3159    0.0000 H   0  0  0  0  0  0  0  0  0  0  0  0
   -1.4212    6.9104    0.0000 H   0  0  0  0  0  0  0  0  0  0  0  0
   -1.2856    5.4886    0.0000 H   0  0  0  0  0  0  0  0  0  0  0  0
    1.2221    4.8457    0.0000 H   0  0  0  0  0  0  0  0  0  0  0  0
    0.8509    3.1246    0.0000 H   0  0  0  0  0  0  0  0  0  0  0  0
   -2.0695    4.8032    0.0000 H   0  0  0  0  0  0  0  0  0  0  0  0
   -3.1520    5.4241    0.0000 H   0  0  0  0  0  0  0  0  0  0  0  0
   -5.2413    5.9185    0.0000 H   0  0  0  0  0  0  0  0  0  0  0  0
   -7.2415    4.3909    0.0000 H   0  0  0  0  0  0  0  0  0  0  0  0
   -6.5394    2.5914    0.0000 H   0  0  0  0  0  0  0  0  0  0  0  0
   -7.5711    1.5546    0.0000 H   0  0  0  0  0  0  0  0  0  0  0  0
   -6.2915    0.0334    0.0000 H   0  0  0  0  0  0  0  0  0  0  0  0
   -6.2452    2.2953    0.0000 H   0  0  0  0  0  0  0  0  0  0  0  0
   -6.1924   -0.3063    0.0000 H   0  0  0  0  0  0  0  0  0  0  0  0
   -4.3513   -1.4663    0.0000 H   0  0  0  0  0  0  0  0  0  0  0  0
   -2.8411   -0.8053    0.0000 H   0  0  0  0  0  0  0  0  0  0  0  0
   -1.8355   -0.4877    0.0000 H   0  0  0  0  0  0  0  0  0  0  0  0
    0.0800    2.1595    0.0000 H   0  0  0  0  0  0  0  0  0  0  0  0
    1.7477    1.2135    0.0000 H   0  0  0  0  0  0  0  0  0  0  0  0
    3.4480   -0.6918    0.0000 H   0  0  0  0  0  0  0  0  0  0  0  0
    2.7301   -3.0080    0.0000 H   0  0  0  0  0  0  0  0  0  0  0  0
    1.4231   -3.8731    0.0000 H   0  0  0  0  0  0  0  0  0  0  0  0
   -0.4841   -3.6726    0.0000 H   0  0  0  0  0  0  0  0  0  0  0  0
   -1.6209   -2.1910    0.0000 H   0  0  0  0  0  0  0  0  0  0  0  0
   -2.2414   -1.9893    0.0000 H   0  0  0  0  0  0  0  0  0  0  0  0
   -2.9138   -3.6767    0.0000 H   0  0  0  0  0  0  0  0  0  0  0  0
    3.1359   -3.2227    0.0000 H   0  0  0  0  0  0  0  0  0  0  0  0
   -1.9134   -4.5279    0.0000 H   0  0  0  0  0  0  0  0  0  0  0  0
   -0.6996   -6.9030    0.0000 H   0  0  0  0  0  0  0  0  0  0  0  0
    1.7785   -7.3426    0.0000 H   0  0  0  0  0  0  0  0  0  0  0  0
    3.1293   -5.4833    0.0000 H   0  0  0  0  0  0  0  0  0  0  0  0
   -2.7212    2.9476    0.0000 H   0  0  0  0  0  0  0  0  0  0  0  0
  1  2  1  0
  2  3  1  0
  3  4  1  0
  4  5  1  0
  5  6  1  0
  6  7  1  0
  8  7  1  1
  8  9  1  0
  9 10  1  1
  9 11  1  0
 11 12  1  0
 12 13  1  0
 13 14  1  0
 14 15  1  0
 15 16  1  0
 16 17  1  0
 17 18  1  0
 19 18  1  6
 19 20  1  0
 20 21  1  0
 20 22  1  0
 22 23  1  6
 22 24  1  0
 24 25  1  0
 25 26  1  0
 27 26  1  1
 13 28  1  0
 28  3  1  0
 28  4  1  0
  8  5  1  0
 12  9  1  0
 19 14  1  0
 27 22  1  0
  8  6  1  0
 19 15  1  0
 27 24  1  0
 23 16  1  0
 27 25  1  0
  1 29  1  0
  1 30  1  0
  1 31  1  0
  2 32  1  0
  2 33  1  0
  3 34  1  1
  4 35  1  1
  5 36  1  1
  6 37  1  6
  7 38  1  0
  7 39  1  0
 10 40  1  0
 10 41  1  0
 10 42  1  0
 11 43  1  0
 11 44  1  0
 12 45  1  1
 13 46  1  6
 14 47  1  6
 15 48  1  6
 16 49  1  1
 17 50  1  0
 17 51  1  0
 18 52  1  0
 18 53  1  0
 20 54  1  1
 21 55  1  0
 23 56  1  0
 24 57  1  6
 25 58  1  6
 26 59  1  0
 26 60  1  0
 28 61  1  6
M  END
$$$$
