
     RDKit          2D

 29 32  0  0  0  0  0  0  0  0999 V2000
    0.1771   -2.1203    0.0000 C   0  0  0  0  0  0  0  0  0  0  0  0
   -0.4330   -0.7500    0.0000 C   0  0  0  0  0  0  0  0  0  0  0  0
   -1.8596   -1.2135    0.0000 C   0  0  0  0  0  0  0  0  0  0  0  0
   -3.0731   -2.0952    0.0000 C   0  0  0  0  0  0  0  0  0  0  0  0
   -3.9548   -0.8817    0.0000 C   0  0  0  0  0  0  0  0  0  0  0  0
   -4.8365    0.3318    0.0000 C   0  0  0  0  0  0  0  0  0  0  0  0
   -5.7182    1.5454    0.0000 O   0  0  0  0  0  0  0  0  0  0  0  0
   -2.7413    0.0000    0.0000 C   0  0  0  0  0  0  0  0  0  0  0  0
   -1.8596    1.2135    0.0000 C   0  0  0  0  0  0  0  0  0  0  0  0
   -0.8559    2.3282    0.0000 C   0  0  0  0  0  0  0  0  0  0  0  0
    0.5144    1.7181    0.0000 N   0  0  0  0  0  0  0  0  0  0  0  0
    0.8660    0.0000    0.0000 C   0  0  0  0  0  0  0  0  0  0  0  0
   -0.4330    0.7500    0.0000 N   0  0  0  0  0  0  0  0  0  0  0  0
    0.7872   -3.4906    0.0000 H   0  0  0  0  0  0  0  0  0  0  0  0
    1.5474   -1.5102    0.0000 H   0  0  0  0  0  0  0  0  0  0  0  0
   -0.6665   -2.6272    0.0000 H   0  0  0  0  0  0  0  0  0  0  0  0
   -1.5230   -2.1383    0.0000 H   0  0  0  0  0  0  0  0  0  0  0  0
   -4.2866   -2.9769    0.0000 H   0  0  0  0  0  0  0  0  0  0  0  0
   -2.1914   -3.3087    0.0000 H   0  0  0  0  0  0  0  0  0  0  0  0
   -5.1683   -1.7634    0.0000 H   0  0  0  0  0  0  0  0  0  0  0  0
   -6.0500   -0.5498    0.0000 H   0  0  0  0  0  0  0  0  0  0  0  0
   -4.1887    0.9359    0.0000 H   0  0  0  0  0  0  0  0  0  0  0  0
   -7.2099    1.3886    0.0000 H   0  0  0  0  0  0  0  0  0  0  0  0
   -3.2866    0.6980    0.0000 H   0  0  0  0  0  0  0  0  0  0  0  0
   -2.4936    2.5730    0.0000 H   0  0  0  0  0  0  0  0  0  0  0  0
   -1.9529    3.3513    0.0000 H   0  0  0  0  0  0  0  0  0  0  0  0
   -0.1059    3.6273    0.0000 H   0  0  0  0  0  0  0  0  0  0  0  0
    1.8135    2.4681    0.0000 H   0  0  0  0  0  0  0  0  0  0  0  0
    2.3660    0.0000    0.0000 H   0  0  0  0  0  0  0  0  0  0  0  0
  1  2  1  0
  2  3  1  0
  3  4  1  0
  4  5  1  0
  5  6  1  0
  6  7  1  0
  5  8  1  0
  8  9  1  0
  9 10  1  0
 10 11  1  0
 11 12  1  0
 12 13  1  0
 12  2  1  0
 13  2  1  0
  8  3  1  0
 13  9  1  0
  1 14  1  0
  1 15  1  0
  1 16  1  0
  3 17  1  0
  4 18  1  0
  4 19  1  0
  5 20  1  0
  6 21  1  0
  6 22  1  0
  7 23  1  0
  8 24  1  0
  9 25  1  0
 10 26  1  0
 10 27  1  0
 11 28  1  0
 12 29  1  0
M  END
$$$$
