
     RDKit          2D

 56 57  0  0  0  0  0  0  0  0999 V2000
   -7.8631   10.6727    0.0000 C   0  0  0  0  0  0  0  0  0  0  0  0
   -6.3714   10.5159    0.0000 C   0  0  0  0  0  0  0  0  0  0  0  0
   -5.4897   11.7294    0.0000 O   0  0  0  0  0  0  0  0  0  0  0  0
   -3.9979   11.5727    0.0000 C   0  0  0  0  0  0  0  0  0  0  0  0
   -2.5061   11.4159    0.0000 C   0  0  0  0  0  0  0  0  0  0  0  0
   -1.6244   12.6294    0.0000 C   0  0  0  0  0  0  0  0  0  0  0  0
   -1.8960   10.0455    0.0000 C   0  0  0  0  0  0  0  0  0  0  0  0
   -1.2859    8.6752    0.0000 C   0  0  0  0  0  0  0  0  0  0  0  0
   -0.6758    7.3049    0.0000 C   0  0  0  0  0  0  0  0  0  0  0  0
   -0.0657    5.9346    0.0000 C   0  0  0  0  0  0  0  0  0  0  0  0
    0.5444    4.5643    0.0000 C   0  0  0  0  0  0  0  0  0  0  0  0
   -0.8259    3.9542    0.0000 C   0  0  0  0  0  0  0  0  0  0  0  0
   -0.2158    2.5838    0.0000 C   0  0  0  0  0  0  0  0  0  0  0  0
    0.3943    1.2135    0.0000 C   0  0  0  0  0  0  0  0  0  0  0  0
    1.2760   -0.0000    0.0000 C   0  0  0  0  0  0  0  0  0  0  0  0
    0.3943   -1.2135    0.0000 C   0  0  0  0  0  0  0  0  0  0  0  0
   -1.0323   -0.7500    0.0000 C   0  0  0  0  0  0  0  0  0  0  0  0
   -1.3442   -2.2172    0.0000 C   0  0  0  0  0  0  0  0  0  0  0  0
   -1.6560   -3.6844    0.0000 C   0  0  0  0  0  0  0  0  0  0  0  0
   -1.0323    0.7500    0.0000 C   0  0  0  0  0  0  0  0  0  0  0  0
   -1.4360    5.3245    0.0000 C   0  0  0  0  0  0  0  0  0  0  0  0
   -2.8063    4.7144    0.0000 O   0  0  0  0  0  0  0  0  0  0  0  0
   -8.7448    9.4592    0.0000 H   0  0  0  0  0  0  0  0  0  0  0  0
   -8.4732   12.0430    0.0000 H   0  0  0  0  0  0  0  0  0  0  0  0
   -5.7613    9.1456    0.0000 H   0  0  0  0  0  0  0  0  0  0  0  0
   -3.8411   13.0644    0.0000 H   0  0  0  0  0  0  0  0  0  0  0  0
   -4.1547   10.0809    0.0000 H   0  0  0  0  0  0  0  0  0  0  0  0
   -2.2345   13.9997    0.0000 H   0  0  0  0  0  0  0  0  0  0  0  0
   -0.1327   12.4726    0.0000 H   0  0  0  0  0  0  0  0  0  0  0  0
   -0.5257   10.6556    0.0000 H   0  0  0  0  0  0  0  0  0  0  0  0
   -3.2663    9.4354    0.0000 H   0  0  0  0  0  0  0  0  0  0  0  0
   -2.6562    8.0651    0.0000 H   0  0  0  0  0  0  0  0  0  0  0  0
    0.0844    9.2853    0.0000 H   0  0  0  0  0  0  0  0  0  0  0  0
   -2.1103    6.8664    0.0000 H   0  0  0  0  0  0  0  0  0  0  0  0
    0.6945    7.9150    0.0000 H   0  0  0  0  0  0  0  0  0  0  0  0
    1.3046    6.5447    0.0000 H   0  0  0  0  0  0  0  0  0  0  0  0
    1.9147    5.1744    0.0000 H   0  0  0  0  0  0  0  0  0  0  0  0
    1.0006    3.8051    0.0000 H   0  0  0  0  0  0  0  0  0  0  0  0
   -2.1962    3.3441    0.0000 H   0  0  0  0  0  0  0  0  0  0  0  0
   -1.6503    2.1453    0.0000 H   0  0  0  0  0  0  0  0  0  0  0  0
    0.6312    2.8428    0.0000 H   0  0  0  0  0  0  0  0  0  0  0  0
    1.6933    1.9635    0.0000 H   0  0  0  0  0  0  0  0  0  0  0  0
    2.3907    1.0037    0.0000 H   0  0  0  0  0  0  0  0  0  0  0  0
    2.3907   -1.0037    0.0000 H   0  0  0  0  0  0  0  0  0  0  0  0
    1.6933   -1.9635    0.0000 H   0  0  0  0  0  0  0  0  0  0  0  0
    0.1613   -1.9759    0.0000 H   0  0  0  0  0  0  0  0  0  0  0  0
   -2.5241   -0.5932    0.0000 H   0  0  0  0  0  0  0  0  0  0  0  0
   -2.8114   -1.9054    0.0000 H   0  0  0  0  0  0  0  0  0  0  0  0
   -0.5904   -2.4768    0.0000 H   0  0  0  0  0  0  0  0  0  0  0  0
   -1.9679   -5.1517    0.0000 H   0  0  0  0  0  0  0  0  0  0  0  0
   -3.1232   -3.3726    0.0000 H   0  0  0  0  0  0  0  0  0  0  0  0
   -0.1888   -3.9963    0.0000 H   0  0  0  0  0  0  0  0  0  0  0  0
   -2.5241    0.5932    0.0000 H   0  0  0  0  0  0  0  0  0  0  0  0
   -1.5207    2.1683    0.0000 H   0  0  0  0  0  0  0  0  0  0  0  0
   -2.2086    6.6102    0.0000 H   0  0  0  0  0  0  0  0  0  0  0  0
   -4.0199    5.5961    0.0000 H   0  0  0  0  0  0  0  0  0  0  0  0
  1  2  2  3
  2  3  1  0
  3  4  1  0
  4  5  1  0
  5  6  2  3
  5  7  1  0
  7  8  1  0
  8  9  1  0
  9 10  1  0
 10 11  1  0
 11 12  1  0
 12 13  1  0
 13 14  1  0
 14 15  1  0
 15 16  1  0
 16 17  1  0
 17 18  1  0
 18 19  1  0
 17 20  1  0
 12 21  1  0
 21 22  1  0
 21 10  1  0
 20 14  1  0
  1 23  1  0
  1 24  1  0
  2 25  1  0
  4 26  1  0
  4 27  1  0
  6 28  1  0
  6 29  1  0
  7 30  1  0
  7 31  1  0
  8 32  1  0
  8 33  1  0
  9 34  1  0
  9 35  1  0
 10 36  1  1
 11 37  1  0
 11 38  1  0
 12 39  1  1
 13 40  1  0
 13 41  1  0
 14 42  1  6
 15 43  1  0
 15 44  1  0
 16 45  1  0
 16 46  1  0
 17 47  1  1
 18 48  1  0
 18 49  1  0
 19 50  1  0
 19 51  1  0
 19 52  1  0
 20 53  1  0
 20 54  1  0
 21 55  1  1
 22 56  1  0
M  END
$$$$
