
     RDKit          2D

 61 65  0  0  0  0  0  0  0  0999 V2000
   -4.7916   -6.3253    0.0000 C   0  0  0  0  0  0  0  0  0  0  0  0
   -4.5311   -4.8481    0.0000 C   0  0  0  0  0  0  0  0  0  0  0  0
   -5.2811   -3.5490    0.0000 C   0  0  0  0  0  0  0  0  0  0  0  0
   -5.2811   -2.0490    0.0000 C   0  0  0  0  0  0  0  0  0  0  0  0
   -4.5311   -0.7500    0.0000 C   0  0  0  0  0  0  0  0  0  0  0  0
   -6.0083   -0.4895    0.0000 C   0  0  0  0  0  0  0  0  0  0  0  0
   -3.2321    0.0000    0.0000 C   0  0  0  0  0  0  0  0  0  0  0  0
   -4.3811    0.9642    0.0000 O   0  0  0  0  0  0  0  0  0  0  0  0
   -1.7321    0.0000    0.0000 C   0  0  0  0  0  0  0  0  0  0  0  0
   -0.4330    0.7500    0.0000 C   0  0  0  0  0  0  0  0  0  0  0  0
    0.8660    0.0000    0.0000 O   0  0  0  0  0  0  0  0  0  0  0  0
   -0.4330   -0.7500    0.0000 C   0  0  0  0  0  0  0  0  0  0  0  0
    0.3170   -2.0490    0.0000 C   0  0  0  0  0  0  0  0  0  0  0  0
    0.3170   -3.5490    0.0000 C   0  0  0  0  0  0  0  0  0  0  0  0
   -0.4330   -4.8481    0.0000 C   0  0  0  0  0  0  0  0  0  0  0  0
    1.0442   -5.1085    0.0000 C   0  0  0  0  0  0  0  0  0  0  0  0
    2.5214   -5.3690    0.0000 C   0  0  0  0  0  0  0  0  0  0  0  0
    3.9986   -5.6295    0.0000 C   0  0  0  0  0  0  0  0  0  0  0  0
    2.2609   -6.8462    0.0000 C   0  0  0  0  0  0  0  0  0  0  0  0
    2.0005   -8.3234    0.0000 C   0  0  0  0  0  0  0  0  0  0  0  0
    3.4100   -8.8365    0.0000 C   0  0  0  0  0  0  0  0  0  0  0  0
    3.6705  -10.3137    0.0000 C   0  0  0  0  0  0  0  0  0  0  0  0
    2.2609   -9.8007    0.0000 C   0  0  0  0  0  0  0  0  0  0  0  0
   -1.7321   -5.5981    0.0000 C   0  0  0  0  0  0  0  0  0  0  0  0
   -3.2321   -5.5981    0.0000 C   0  0  0  0  0  0  0  0  0  0  0  0
   -5.0520   -7.8025    0.0000 H   0  0  0  0  0  0  0  0  0  0  0  0
   -6.2688   -6.0648    0.0000 H   0  0  0  0  0  0  0  0  0  0  0  0
   -3.3571   -6.7639    0.0000 H   0  0  0  0  0  0  0  0  0  0  0  0
   -6.0083   -5.1085    0.0000 H   0  0  0  0  0  0  0  0  0  0  0  0
   -6.7300   -3.9373    0.0000 H   0  0  0  0  0  0  0  0  0  0  0  0
   -6.0705   -1.9381    0.0000 H   0  0  0  0  0  0  0  0  0  0  0  0
   -4.9759    0.2489    0.0000 H   0  0  0  0  0  0  0  0  0  0  0  0
   -7.4855   -0.2291    0.0000 H   0  0  0  0  0  0  0  0  0  0  0  0
   -5.7478    0.9877    0.0000 H   0  0  0  0  0  0  0  0  0  0  0  0
   -6.2414   -1.2519    0.0000 H   0  0  0  0  0  0  0  0  0  0  0  0
   -2.8947    1.4616    0.0000 H   0  0  0  0  0  0  0  0  0  0  0  0
   -4.1206    2.4414    0.0000 H   0  0  0  0  0  0  0  0  0  0  0  0
   -1.9408    1.4854    0.0000 H   0  0  0  0  0  0  0  0  0  0  0  0
   -0.4330    2.2500    0.0000 H   0  0  0  0  0  0  0  0  0  0  0  0
    1.2812   -0.9000    0.0000 H   0  0  0  0  0  0  0  0  0  0  0  0
    1.7786   -2.3864    0.0000 H   0  0  0  0  0  0  0  0  0  0  0  0
    1.7265   -3.0360    0.0000 H   0  0  0  0  0  0  0  0  0  0  0  0
    1.5306   -4.4307    0.0000 H   0  0  0  0  0  0  0  0  0  0  0  0
    0.0056   -6.2825    0.0000 H   0  0  0  0  0  0  0  0  0  0  0  0
    0.6056   -6.5430    0.0000 H   0  0  0  0  0  0  0  0  0  0  0  0
    1.4828   -3.6741    0.0000 H   0  0  0  0  0  0  0  0  0  0  0  0
    2.7819   -3.8918    0.0000 H   0  0  0  0  0  0  0  0  0  0  0  0
    5.4758   -5.8900    0.0000 H   0  0  0  0  0  0  0  0  0  0  0  0
    4.2591   -4.1523    0.0000 H   0  0  0  0  0  0  0  0  0  0  0  0
    3.9202   -7.1274    0.0000 H   0  0  0  0  0  0  0  0  0  0  0  0
    3.6954   -7.2848    0.0000 H   0  0  0  0  0  0  0  0  0  0  0  0
    0.7630   -6.7678    0.0000 H   0  0  0  0  0  0  0  0  0  0  0  0
    0.5005   -8.3234    0.0000 H   0  0  0  0  0  0  0  0  0  0  0  0
    4.5591   -7.8723    0.0000 H   0  0  0  0  0  0  0  0  0  0  0  0
    5.1705  -10.3137    0.0000 H   0  0  0  0  0  0  0  0  0  0  0  0
    3.4100  -11.7909    0.0000 H   0  0  0  0  0  0  0  0  0  0  0  0
    1.1119  -10.7648    0.0000 H   0  0  0  0  0  0  0  0  0  0  0  0
   -0.7091   -6.6951    0.0000 H   0  0  0  0  0  0  0  0  0  0  0  0
   -2.0694   -7.0596    0.0000 H   0  0  0  0  0  0  0  0  0  0  0  0
   -2.7190   -7.0076    0.0000 H   0  0  0  0  0  0  0  0  0  0  0  0
   -4.1137   -6.8116    0.0000 H   0  0  0  0  0  0  0  0  0  0  0  0
  1  2  1  0
  2  3  1  0
  3  4  2  0
  4  5  1  0
  5  6  1  0
  5  7  1  0
  7  8  1  0
  7  9  1  0
  9 10  1  0
 10 11  1  0
 11 12  1  0
 12 13  1  0
 13 14  1  0
 14 15  1  0
 15 16  1  0
 16 17  1  0
 17 18  1  0
 17 19  1  0
 19 20  1  0
 20 21  1  0
 21 22  1  0
 22 23  1  0
 15 24  1  0
 24 25  1  0
 25  2  1  0
 12  9  1  0
 23 20  1  0
 12 10  1  0
 23 21  1  0
  1 26  1  0
  1 27  1  0
  1 28  1  0
  2 29  1  0
  3 30  1  0
  4 31  1  0
  5 32  1  0
  6 33  1  0
  6 34  1  0
  6 35  1  0
  7 36  1  0
  8 37  1  0
  9 38  1  0
 10 39  1  0
 13 40  1  0
 13 41  1  0
 14 42  1  0
 14 43  1  0
 15 44  1  0
 16 45  1  0
 16 46  1  0
 17 47  1  0
 18 48  1  0
 18 49  1  0
 18 50  1  0
 19 51  1  0
 19 52  1  0
 20 53  1  0
 21 54  1  0
 22 55  1  0
 22 56  1  0
 23 57  1  0
 24 58  1  0
 24 59  1  0
 25 60  1  0
 25 61  1  0
M  END
$$$$
