
     RDKit          2D

 28 28  0  0  0  0  0  0  0  0999 V2000
   -0.6528    5.1907    0.0000 C   0  0  0  0  0  0  0  0  0  0  0  0
    0.4963    4.2265    0.0000 C   0  0  0  0  0  0  0  0  0  0  0  0
    1.6453    3.2623    0.0000 C   0  0  0  0  0  0  0  0  0  0  0  0
    2.7944    2.2981    0.0000 C   0  0  0  0  0  0  0  0  0  0  0  0
    3.9435    1.3340    0.0000 C   0  0  0  0  0  0  0  0  0  0  0  0
    5.0925    0.3698    0.0000 O   0  0  0  0  0  0  0  0  0  0  0  0
    1.8302    1.1491    0.0000 C   0  0  0  0  0  0  0  0  0  0  0  0
    0.8660   -0.0000    0.0000 C   0  0  0  0  0  0  0  0  0  0  0  0
    1.8302   -1.1491    0.0000 C   0  0  0  0  0  0  0  0  0  0  0  0
    0.3530   -1.4095    0.0000 C   0  0  0  0  0  0  0  0  0  0  0  0
   -1.8019    6.1549    0.0000 H   0  0  0  0  0  0  0  0  0  0  0  0
   -1.6170    4.0416    0.0000 H   0  0  0  0  0  0  0  0  0  0  0  0
    0.3114    6.3397    0.0000 H   0  0  0  0  0  0  0  0  0  0  0  0
   -0.4679    3.0774    0.0000 H   0  0  0  0  0  0  0  0  0  0  0  0
    1.4604    5.3756    0.0000 H   0  0  0  0  0  0  0  0  0  0  0  0
    0.9975    2.6583    0.0000 H   0  0  0  0  0  0  0  0  0  0  0  0
    2.6095    4.4114    0.0000 H   0  0  0  0  0  0  0  0  0  0  0  0
    3.7586    3.4472    0.0000 H   0  0  0  0  0  0  0  0  0  0  0  0
    4.9076    2.4830    0.0000 H   0  0  0  0  0  0  0  0  0  0  0  0
    3.5121    0.4494    0.0000 H   0  0  0  0  0  0  0  0  0  0  0  0
    6.5021    0.8828    0.0000 H   0  0  0  0  0  0  0  0  0  0  0  0
    2.5841    0.5165    0.0000 H   0  0  0  0  0  0  0  0  0  0  0  0
    1.0874    1.6315    0.0000 H   0  0  0  0  0  0  0  0  0  0  0  0
   -0.4330    0.7500    0.0000 H   0  0  0  0  0  0  0  0  0  0  0  0
    2.3432   -2.5586    0.0000 H   0  0  0  0  0  0  0  0  0  0  0  0
    3.2721   -0.7357    0.0000 H   0  0  0  0  0  0  0  0  0  0  0  0
   -1.1242   -1.1491    0.0000 H   0  0  0  0  0  0  0  0  0  0  0  0
    0.3530   -2.9095    0.0000 H   0  0  0  0  0  0  0  0  0  0  0  0
  1  2  1  0
  2  3  1  0
  3  4  1  0
  4  5  1  0
  5  6  1  0
  4  7  1  0
  7  8  1  0
  8  9  1  0
  9 10  1  0
 10  8  1  0
  1 11  1  0
  1 12  1  0
  1 13  1  0
  2 14  1  0
  2 15  1  0
  3 16  1  0
  3 17  1  0
  4 18  1  1
  5 19  1  0
  5 20  1  0
  6 21  1  0
  7 22  1  0
  7 23  1  0
  8 24  1  0
  9 25  1  0
  9 26  1  0
 10 27  1  0
 10 28  1  0
M  END
$$$$
