
     RDKit          2D

 37 38  0  0  0  0  0  0  0  0999 V2000
   -1.4489   -5.0702    0.0000 C   0  0  0  0  0  0  0  0  0  0  0  0
   -1.0607   -3.6213    0.0000 C   0  0  0  0  0  0  0  0  0  0  0  0
    0.0000   -2.5607    0.0000 C   0  0  0  0  0  0  0  0  0  0  0  0
   -0.0000   -1.0607    0.0000 C   0  0  0  0  0  0  0  0  0  0  0  0
    1.0607    0.0000    0.0000 C   0  0  0  0  0  0  0  0  0  0  0  0
    0.0000    1.0607    0.0000 C   0  0  0  0  0  0  0  0  0  0  0  0
   -1.0607    0.0000    0.0000 C   0  0  0  0  0  0  0  0  0  0  0  0
   -2.5607   -0.0000    0.0000 N   0  0  0  0  0  0  0  0  0  0  0  0
   -3.6213   -1.0607    0.0000 N   0  0  0  0  0  0  0  0  0  0  0  0
   -3.6213   -2.5607    0.0000 C   0  0  0  0  0  0  0  0  0  0  0  0
   -2.5607   -3.6213    0.0000 C   0  0  0  0  0  0  0  0  0  0  0  0
   -3.8597   -4.3713    0.0000 C   0  0  0  0  0  0  0  0  0  0  0  0
   -5.1587   -5.1213    0.0000 C   0  0  0  0  0  0  0  0  0  0  0  0
   -6.4578   -5.8713    0.0000 N   0  0  0  0  0  0  0  0  0  0  0  0
   -1.8371   -6.5191    0.0000 H   0  0  0  0  0  0  0  0  0  0  0  0
    0.0000   -5.4584    0.0000 H   0  0  0  0  0  0  0  0  0  0  0  0
   -2.2383   -4.9593    0.0000 H   0  0  0  0  0  0  0  0  0  0  0  0
    0.1373   -4.5241    0.0000 H   0  0  0  0  0  0  0  0  0  0  0  0
    0.9028   -3.7586    0.0000 H   0  0  0  0  0  0  0  0  0  0  0  0
    1.3369   -2.3728    0.0000 H   0  0  0  0  0  0  0  0  0  0  0  0
    1.1708   -1.3853    0.0000 H   0  0  0  0  0  0  0  0  0  0  0  0
    2.1213    1.0607    0.0000 H   0  0  0  0  0  0  0  0  0  0  0  0
    2.0153   -0.9546    0.0000 H   0  0  0  0  0  0  0  0  0  0  0  0
   -1.0607    2.1213    0.0000 H   0  0  0  0  0  0  0  0  0  0  0  0
    1.0607    2.1213    0.0000 H   0  0  0  0  0  0  0  0  0  0  0  0
   -1.6347    1.3858    0.0000 H   0  0  0  0  0  0  0  0  0  0  0  0
   -3.1347    1.3858    0.0000 H   0  0  0  0  0  0  0  0  0  0  0  0
   -5.0071   -0.4866    0.0000 H   0  0  0  0  0  0  0  0  0  0  0  0
   -5.0702   -2.1724    0.0000 H   0  0  0  0  0  0  0  0  0  0  0  0
   -4.7871   -3.5045    0.0000 H   0  0  0  0  0  0  0  0  0  0  0  0
   -2.6441   -4.4141    0.0000 H   0  0  0  0  0  0  0  0  0  0  0  0
   -3.1097   -5.6704    0.0000 H   0  0  0  0  0  0  0  0  0  0  0  0
   -4.7625   -3.1734    0.0000 H   0  0  0  0  0  0  0  0  0  0  0  0
   -5.9087   -3.8223    0.0000 H   0  0  0  0  0  0  0  0  0  0  0  0
   -4.4087   -6.4204    0.0000 H   0  0  0  0  0  0  0  0  0  0  0  0
   -6.4578   -7.3713    0.0000 H   0  0  0  0  0  0  0  0  0  0  0  0
   -7.7568   -5.1213    0.0000 H   0  0  0  0  0  0  0  0  0  0  0  0
  1  2  1  0
  2  3  1  0
  3  4  1  0
  4  5  1  0
  5  6  1  0
  6  7  1  0
  7  8  1  0
  8  9  1  0
  9 10  1  0
 10 11  1  0
 11 12  1  0
 12 13  1  0
 13 14  1  0
 11  2  1  0
  7  4  1  0
  1 15  1  0
  1 16  1  0
  1 17  1  0
  2 18  1  0
  3 19  1  0
  3 20  1  0
  4 21  1  0
  5 22  1  0
  5 23  1  0
  6 24  1  0
  6 25  1  0
  7 26  1  0
  8 27  1  0
  9 28  1  0
 10 29  1  0
 10 30  1  0
 11 31  1  0
 12 32  1  0
 12 33  1  0
 13 34  1  0
 13 35  1  0
 14 36  1  0
 14 37  1  0
M  END
$$$$
