
     RDKit          2D

 65 67  0  0  0  0  0  0  0  0999 V2000
   -2.9948   12.0193    0.0000 C   0  0  0  0  0  0  0  0  0  0  0  0
   -3.8764   10.8058    0.0000 C   0  0  0  0  0  0  0  0  0  0  0  0
   -5.3682   10.9625    0.0000 O   0  0  0  0  0  0  0  0  0  0  0  0
   -3.2663    9.4354    0.0000 C   0  0  0  0  0  0  0  0  0  0  0  0
   -2.6562    8.0651    0.0000 C   0  0  0  0  0  0  0  0  0  0  0  0
   -2.0461    6.6948    0.0000 C   0  0  0  0  0  0  0  0  0  0  0  0
   -1.4360    5.3245    0.0000 C   0  0  0  0  0  0  0  0  0  0  0  0
   -0.8259    3.9542    0.0000 C   0  0  0  0  0  0  0  0  0  0  0  0
   -0.2158    2.5838    0.0000 C   0  0  0  0  0  0  0  0  0  0  0  0
    0.3943    1.2135    0.0000 C   0  0  0  0  0  0  0  0  0  0  0  0
    1.2760    0.0000    0.0000 C   0  0  0  0  0  0  0  0  0  0  0  0
    0.3943   -1.2135    0.0000 C   0  0  0  0  0  0  0  0  0  0  0  0
   -1.0323   -0.7500    0.0000 C   0  0  0  0  0  0  0  0  0  0  0  0
   -1.0323    0.7500    0.0000 C   0  0  0  0  0  0  0  0  0  0  0  0
   -2.5241    0.5932    0.0000 C   0  0  0  0  0  0  0  0  0  0  0  0
   -4.0159    0.4364    0.0000 C   0  0  0  0  0  0  0  0  0  0  0  0
   -5.5076    0.2796    0.0000 C   0  0  0  0  0  0  0  0  0  0  0  0
   -6.9994    0.1228    0.0000 C   0  0  0  0  0  0  0  0  0  0  0  0
   -8.4912   -0.0340    0.0000 C   0  0  0  0  0  0  0  0  0  0  0  0
   -9.9830   -0.1908    0.0000 C   0  0  0  0  0  0  0  0  0  0  0  0
  -11.4384    0.1721    0.0000 C   0  0  0  0  0  0  0  0  0  0  0  0
  -10.3964    1.2511    0.0000 C   0  0  0  0  0  0  0  0  0  0  0  0
   -0.0657    5.9346    0.0000 C   0  0  0  0  0  0  0  0  0  0  0  0
    1.0133    6.9766    0.0000 C   0  0  0  0  0  0  0  0  0  0  0  0
   -0.4286    7.3900    0.0000 O   0  0  0  0  0  0  0  0  0  0  0  0
   -2.1131   13.2328    0.0000 H   0  0  0  0  0  0  0  0  0  0  0  0
   -4.2083   12.9010    0.0000 H   0  0  0  0  0  0  0  0  0  0  0  0
   -1.7812   11.1376    0.0000 H   0  0  0  0  0  0  0  0  0  0  0  0
   -1.8960   10.0455    0.0000 H   0  0  0  0  0  0  0  0  0  0  0  0
   -4.6366    8.8253    0.0000 H   0  0  0  0  0  0  0  0  0  0  0  0
   -4.0265    7.4550    0.0000 H   0  0  0  0  0  0  0  0  0  0  0  0
   -1.2859    8.6752    0.0000 H   0  0  0  0  0  0  0  0  0  0  0  0
   -1.3482    7.2401    0.0000 H   0  0  0  0  0  0  0  0  0  0  0  0
   -3.4164    6.0847    0.0000 H   0  0  0  0  0  0  0  0  0  0  0  0
   -2.8063    4.7144    0.0000 H   0  0  0  0  0  0  0  0  0  0  0  0
   -2.1962    3.3441    0.0000 H   0  0  0  0  0  0  0  0  0  0  0  0
    0.6086    4.3927    0.0000 H   0  0  0  0  0  0  0  0  0  0  0  0
   -0.9781    2.3508    0.0000 H   0  0  0  0  0  0  0  0  0  0  0  0
    1.1545    3.1939    0.0000 H   0  0  0  0  0  0  0  0  0  0  0  0
    1.6933    1.9635    0.0000 H   0  0  0  0  0  0  0  0  0  0  0  0
    2.3907    1.0037    0.0000 H   0  0  0  0  0  0  0  0  0  0  0  0
    2.3907   -1.0037    0.0000 H   0  0  0  0  0  0  0  0  0  0  0  0
    1.6933   -1.9635    0.0000 H   0  0  0  0  0  0  0  0  0  0  0  0
   -0.2158   -2.5838    0.0000 H   0  0  0  0  0  0  0  0  0  0  0  0
   -1.3442   -2.2172    0.0000 H   0  0  0  0  0  0  0  0  0  0  0  0
   -2.5321   -0.7762    0.0000 H   0  0  0  0  0  0  0  0  0  0  0  0
   -1.2918    1.5037    0.0000 H   0  0  0  0  0  0  0  0  0  0  0  0
   -2.6809    2.0850    0.0000 H   0  0  0  0  0  0  0  0  0  0  0  0
   -2.5503   -0.9066    0.0000 H   0  0  0  0  0  0  0  0  0  0  0  0
   -4.1726    1.9282    0.0000 H   0  0  0  0  0  0  0  0  0  0  0  0
   -3.8591   -1.0554    0.0000 H   0  0  0  0  0  0  0  0  0  0  0  0
   -5.3508   -1.2122    0.0000 H   0  0  0  0  0  0  0  0  0  0  0  0
   -5.6644    1.7714    0.0000 H   0  0  0  0  0  0  0  0  0  0  0  0
   -7.1562    1.6146    0.0000 H   0  0  0  0  0  0  0  0  0  0  0  0
   -6.8426   -1.3690    0.0000 H   0  0  0  0  0  0  0  0  0  0  0  0
   -8.3344   -1.5257    0.0000 H   0  0  0  0  0  0  0  0  0  0  0  0
   -8.4650    1.4658    0.0000 H   0  0  0  0  0  0  0  0  0  0  0  0
  -10.0876   -1.6871    0.0000 H   0  0  0  0  0  0  0  0  0  0  0  0
  -12.0485   -1.1982    0.0000 H   0  0  0  0  0  0  0  0  0  0  0  0
  -12.6820    1.0109    0.0000 H   0  0  0  0  0  0  0  0  0  0  0  0
  -11.2781    2.4647    0.0000 H   0  0  0  0  0  0  0  0  0  0  0  0
   -9.1385    2.0681    0.0000 H   0  0  0  0  0  0  0  0  0  0  0  0
    0.9184    4.8025    0.0000 H   0  0  0  0  0  0  0  0  0  0  0  0
    2.2268    6.0949    0.0000 H   0  0  0  0  0  0  0  0  0  0  0  0
    1.6709    8.3248    0.0000 H   0  0  0  0  0  0  0  0  0  0  0  0
  1  2  1  0
  2  3  2  0
  2  4  1  0
  4  5  1  0
  5  6  1  0
  6  7  1  0
  7  8  1  0
  8  9  1  0
  9 10  1  0
 10 11  1  0
 11 12  1  0
 12 13  1  0
 13 14  1  0
 14 15  1  0
 15 16  1  0
 16 17  1  0
 17 18  1  0
 18 19  1  0
 19 20  1  0
 20 21  1  0
 21 22  1  0
  7 23  1  0
 23 24  1  0
 24 25  1  0
 14 10  1  0
 22 20  1  0
 25 23  1  0
  1 26  1  0
  1 27  1  0
  1 28  1  0
  4 29  1  0
  4 30  1  0
  5 31  1  0
  5 32  1  0
  6 33  1  0
  6 34  1  0
  7 35  1  0
  8 36  1  0
  8 37  1  0
  9 38  1  0
  9 39  1  0
 10 40  1  0
 11 41  1  0
 11 42  1  0
 12 43  1  0
 12 44  1  0
 13 45  1  0
 13 46  1  0
 14 47  1  0
 15 48  1  0
 15 49  1  0
 16 50  1  0
 16 51  1  0
 17 52  1  0
 17 53  1  0
 18 54  1  0
 18 55  1  0
 19 56  1  0
 19 57  1  0
 20 58  1  0
 21 59  1  0
 21 60  1  0
 22 61  1  0
 22 62  1  0
 23 63  1  0
 24 64  1  0
 24 65  1  0
M  END
$$$$
