
     RDKit          2D

111119  0  0  0  0  0  0  0  0999 V2000
   -4.7980    3.2301    0.0000 C   0  0  0  0  0  0  0  0  0  0  0  0
   -5.3978    1.8553    0.0000 C   0  0  0  0  0  0  0  0  0  0  0  0
   -4.5071    0.6484    0.0000 C   0  0  0  0  0  0  0  0  0  0  0  0
   -5.4423   -0.5243    0.0000 C   0  0  0  0  0  0  0  0  0  0  0  0
   -6.6151    0.4109    0.0000 C   0  0  0  0  0  0  0  0  0  0  0  0
   -7.7878    1.3461    0.0000 C   0  0  0  0  0  0  0  0  0  0  0  0
   -4.2696   -1.4596    0.0000 C   0  0  0  0  0  0  0  0  0  0  0  0
   -3.3343   -0.2868    0.0000 C   0  0  0  0  0  0  0  0  0  0  0  0
   -3.1108    1.1964    0.0000 C   0  0  0  0  0  0  0  0  0  0  0  0
   -3.4080    2.6667    0.0000 C   0  0  0  0  0  0  0  0  0  0  0  0
   -3.7052    4.1369    0.0000 C   0  0  0  0  0  0  0  0  0  0  0  0
   -2.5805    5.1295    0.0000 C   0  0  0  0  0  0  0  0  0  0  0  0
   -1.1586    4.6517    0.0000 C   0  0  0  0  0  0  0  0  0  0  0  0
    0.3409    4.6891    0.0000 C   0  0  0  0  0  0  0  0  0  0  0  0
    1.8404    4.7265    0.0000 C   0  0  0  0  0  0  0  0  0  0  0  0
    2.5578    6.0439    0.0000 C   0  0  0  0  0  0  0  0  0  0  0  0
    1.7757    7.3238    0.0000 C   0  0  0  0  0  0  0  0  0  0  0  0
    3.2640    7.1373    0.0000 C   0  0  0  0  0  0  0  0  0  0  0  0
    2.6814    8.5195    0.0000 C   0  0  0  0  0  0  0  0  0  0  0  0
    2.3112    9.9731    0.0000 C   0  0  0  0  0  0  0  0  0  0  0  0
    2.6085   11.4434    0.0000 C   0  0  0  0  0  0  0  0  0  0  0  0
    0.9440   10.5900    0.0000 C   0  0  0  0  0  0  0  0  0  0  0  0
   -0.3908    9.9057    0.0000 C   0  0  0  0  0  0  0  0  0  0  0  0
   -0.6881    8.4355    0.0000 C   0  0  0  0  0  0  0  0  0  0  0  0
   -1.5938    7.2398    0.0000 C   0  0  0  0  0  0  0  0  0  0  0  0
   -2.4995    6.0441    0.0000 C   0  0  0  0  0  0  0  0  0  0  0  0
    0.2761    7.2864    0.0000 C   0  0  0  0  0  0  0  0  0  0  0  0
   -0.4413    5.9691    0.0000 C   0  0  0  0  0  0  0  0  0  0  0  0
   -4.8782    2.3695    0.0000 C   0  0  0  0  0  0  0  0  0  0  0  0
   -6.3485    2.0722    0.0000 C   0  0  0  0  0  0  0  0  0  0  0  0
   -7.8021    2.4424    0.0000 C   0  0  0  0  0  0  0  0  0  0  0  0
   -8.9978    1.5367    0.0000 C   0  0  0  0  0  0  0  0  0  0  0  0
  -10.0194    0.3134    0.0000 C   0  0  0  0  0  0  0  0  0  0  0  0
  -10.3978   -1.1381    0.0000 C   0  0  0  0  0  0  0  0  0  0  0  0
   -9.6390   -2.4320    0.0000 C   0  0  0  0  0  0  0  0  0  0  0  0
  -11.0853   -2.8301    0.0000 C   0  0  0  0  0  0  0  0  0  0  0  0
  -12.5315   -3.2281    0.0000 C   0  0  0  0  0  0  0  0  0  0  0  0
  -13.9777   -3.6261    0.0000 C   0  0  0  0  0  0  0  0  0  0  0  0
   -8.1876   -2.8105    0.0000 O   0  0  0  0  0  0  0  0  0  0  0  0
   -6.8936   -2.0517    0.0000 C   0  0  0  0  0  0  0  0  0  0  0  0
   -7.8861   -0.9271    0.0000 C   0  0  0  0  0  0  0  0  0  0  0  0
   -9.0352    0.0371    0.0000 C   0  0  0  0  0  0  0  0  0  0  0  0
   -9.7195   -1.2977    0.0000 C   0  0  0  0  0  0  0  0  0  0  0  0
   -6.4159   -0.6298    0.0000 C   0  0  0  0  0  0  0  0  0  0  0  0
   -5.7316    0.7050    0.0000 C   0  0  0  0  0  0  0  0  0  0  0  0
   -5.6887    4.4370    0.0000 H   0  0  0  0  0  0  0  0  0  0  0  0
   -3.3923    3.7538    0.0000 H   0  0  0  0  0  0  0  0  0  0  0  0
   -6.8568    1.5069    0.0000 H   0  0  0  0  0  0  0  0  0  0  0  0
   -6.0660   -1.8885    0.0000 H   0  0  0  0  0  0  0  0  0  0  0  0
   -7.8063   -0.5007    0.0000 H   0  0  0  0  0  0  0  0  0  0  0  0
   -5.9914    1.7751    0.0000 H   0  0  0  0  0  0  0  0  0  0  0  0
   -8.4115   -0.0181    0.0000 H   0  0  0  0  0  0  0  0  0  0  0  0
   -7.3351    2.7762    0.0000 H   0  0  0  0  0  0  0  0  0  0  0  0
   -9.1520    1.9698    0.0000 H   0  0  0  0  0  0  0  0  0  0  0  0
   -3.0968   -2.3948    0.0000 H   0  0  0  0  0  0  0  0  0  0  0  0
   -5.2048   -2.6323    0.0000 H   0  0  0  0  0  0  0  0  0  0  0  0
   -1.9595   -0.8867    0.0000 H   0  0  0  0  0  0  0  0  0  0  0  0
   -1.6112    1.2338    0.0000 H   0  0  0  0  0  0  0  0  0  0  0  0
   -1.9125    2.7825    0.0000 H   0  0  0  0  0  0  0  0  0  0  0  0
   -4.9692    4.9445    0.0000 H   0  0  0  0  0  0  0  0  0  0  0  0
   -3.3850    6.3955    0.0000 H   0  0  0  0  0  0  0  0  0  0  0  0
   -1.1997    3.1523    0.0000 H   0  0  0  0  0  0  0  0  0  0  0  0
    0.3783    3.1896    0.0000 H   0  0  0  0  0  0  0  0  0  0  0  0
    3.2623    4.2488    0.0000 H   0  0  0  0  0  0  0  0  0  0  0  0
    1.6169    3.2433    0.0000 H   0  0  0  0  0  0  0  0  0  0  0  0
    3.8892    6.7347    0.0000 H   0  0  0  0  0  0  0  0  0  0  0  0
    3.6078    4.9726    0.0000 H   0  0  0  0  0  0  0  0  0  0  0  0
    3.5208    5.6594    0.0000 H   0  0  0  0  0  0  0  0  0  0  0  0
    4.7264    7.4711    0.0000 H   0  0  0  0  0  0  0  0  0  0  0  0
    4.1033    8.9972    0.0000 H   0  0  0  0  0  0  0  0  0  0  0  0
    3.8108   10.0105    0.0000 H   0  0  0  0  0  0  0  0  0  0  0  0
    4.0787   11.1461    0.0000 H   0  0  0  0  0  0  0  0  0  0  0  0
    1.1854   11.9176    0.0000 H   0  0  0  0  0  0  0  0  0  0  0  0
    2.9057   12.9136    0.0000 H   0  0  0  0  0  0  0  0  0  0  0  0
    1.6972   11.8872    0.0000 H   0  0  0  0  0  0  0  0  0  0  0  0
    0.1270   11.8481    0.0000 H   0  0  0  0  0  0  0  0  0  0  0  0
   -0.9354   11.3034    0.0000 H   0  0  0  0  0  0  0  0  0  0  0  0
   -1.8837   10.0514    0.0000 H   0  0  0  0  0  0  0  0  0  0  0  0
   -2.1203    8.8811    0.0000 H   0  0  0  0  0  0  0  0  0  0  0  0
   -2.7895    8.1455    0.0000 H   0  0  0  0  0  0  0  0  0  0  0  0
   -0.6528    6.0716    0.0000 H   0  0  0  0  0  0  0  0  0  0  0  0
   -3.5758    7.0888    0.0000 H   0  0  0  0  0  0  0  0  0  0  0  0
   -1.5585    4.8759    0.0000 H   0  0  0  0  0  0  0  0  0  0  0  0
   -3.6676    5.1031    0.0000 H   0  0  0  0  0  0  0  0  0  0  0  0
    0.6824    8.7303    0.0000 H   0  0  0  0  0  0  0  0  0  0  0  0
   -1.8930    6.3464    0.0000 H   0  0  0  0  0  0  0  0  0  0  0  0
   -4.7625    0.8739    0.0000 H   0  0  0  0  0  0  0  0  0  0  0  0
   -5.1755    3.8397    0.0000 H   0  0  0  0  0  0  0  0  0  0  0  0
   -6.1286    3.5560    0.0000 H   0  0  0  0  0  0  0  0  0  0  0  0
   -7.2856    3.8506    0.0000 H   0  0  0  0  0  0  0  0  0  0  0  0
   -8.9512    3.4065    0.0000 H   0  0  0  0  0  0  0  0  0  0  0  0
  -10.3326    2.2210    0.0000 H   0  0  0  0  0  0  0  0  0  0  0  0
  -11.2155    1.2185    0.0000 H   0  0  0  0  0  0  0  0  0  0  0  0
  -11.8976   -1.1613    0.0000 H   0  0  0  0  0  0  0  0  0  0  0  0
   -9.6289   -3.9320    0.0000 H   0  0  0  0  0  0  0  0  0  0  0  0
  -10.6873   -4.2763    0.0000 H   0  0  0  0  0  0  0  0  0  0  0  0
  -11.8214   -1.5231    0.0000 H   0  0  0  0  0  0  0  0  0  0  0  0
  -12.1335   -4.6743    0.0000 H   0  0  0  0  0  0  0  0  0  0  0  0
  -12.9295   -1.7818    0.0000 H   0  0  0  0  0  0  0  0  0  0  0  0
  -14.3757   -2.1798    0.0000 H   0  0  0  0  0  0  0  0  0  0  0  0
  -13.5797   -5.0723    0.0000 H   0  0  0  0  0  0  0  0  0  0  0  0
  -15.4240   -4.0241    0.0000 H   0  0  0  0  0  0  0  0  0  0  0  0
   -6.5964   -3.5220    0.0000 H   0  0  0  0  0  0  0  0  0  0  0  0
   -8.7948   -2.1205    0.0000 H   0  0  0  0  0  0  0  0  0  0  0  0
  -10.5352    0.0445    0.0000 H   0  0  0  0  0  0  0  0  0  0  0  0
  -10.9610   -0.4558    0.0000 H   0  0  0  0  0  0  0  0  0  0  0  0
   -8.7187   -2.4150    0.0000 H   0  0  0  0  0  0  0  0  0  0  0  0
  -10.4038   -2.6325    0.0000 H   0  0  0  0  0  0  0  0  0  0  0  0
   -5.0337   -1.2125    0.0000 H   0  0  0  0  0  0  0  0  0  0  0  0
   -4.5825   -0.2592    0.0000 H   0  0  0  0  0  0  0  0  0  0  0  0
   -4.4344    1.4582    0.0000 H   0  0  0  0  0  0  0  0  0  0  0  0
  1  2  2  0
  3  2  1  6
  3  4  1  0
  4  5  1  0
  5  6  1  0
  4  7  1  0
  7  8  1  0
  8  9  1  0
  9 10  1  0
 10 11  1  0
 11 12  2  3
 12 13  1  0
 13 14  1  0
 14 15  1  0
 15 16  1  0
 17 16  1  6
 17 18  1  0
 18 19  1  0
 19 20  1  0
 20 21  1  0
 20 22  1  0
 22 23  1  0
 23 24  1  0
 24 25  1  0
 25 26  1  0
 24 27  1  0
 27 28  1  0
 10 29  1  0
 29 30  1  0
 30 31  1  0
 31 32  1  0
 32 33  1  0
 33 34  2  0
 34 35  1  0
 35 36  1  0
 36 37  1  0
 37 38  1  0
 35 39  1  0
 39 40  1  0
 40 41  1  0
 41 42  1  0
 42 43  1  0
 41 44  1  0
 44 45  1  0
  8  3  1  0
 28 13  1  0
 45 30  1  0
  9  3  1  0
 28 14  1  0
 42 32  1  0
 19 17  1  0
 44 40  1  0
 27 17  1  0
  1 46  1  0
  1 47  1  0
  2 48  1  0
  4 49  1  6
  5 50  1  0
  5 51  1  0
  6 52  1  0
  6 53  1  0
  6 54  1  0
  7 55  1  0
  7 56  1  0
  8 57  1  6
  9 58  1  1
 10 59  1  6
 11 60  1  0
 12 61  1  0
 13 62  1  1
 14 63  1  6
 15 64  1  0
 15 65  1  0
 16 66  1  0
 16 67  1  0
 18 68  1  0
 18 69  1  0
 19 70  1  6
 20 71  1  1
 21 72  1  0
 21 73  1  0
 21 74  1  0
 22 75  1  0
 22 76  1  0
 23 77  1  0
 23 78  1  0
 24 79  1  6
 25 80  1  0
 25 81  1  0
 26 82  1  0
 26 83  1  0
 26 84  1  0
 27 85  1  6
 28 86  1  6
 29 87  1  0
 29 88  1  0
 30 89  1  6
 31 90  1  0
 31 91  1  0
 32 92  1  6
 33 93  1  0
 34 94  1  0
 35 95  1  6
 36 96  1  0
 36 97  1  0
 37 98  1  0
 37 99  1  0
 38100  1  0
 38101  1  0
 38102  1  0
 40103  1  1
 41104  1  6
 42105  1  6
 43106  1  0
 43107  1  0
 43108  1  0
 44109  1  6
 45110  1  0
 45111  1  0
M  END
$$$$
