
     RDKit          2D

 21 21  0  0  0  0  0  0  0  0999 V2000
    3.4598    0.0000    0.0000 O   0  0  0  0  0  0  0  0  0  0  0  0
    1.9598    0.0000    0.0000 C   0  0  0  0  0  0  0  0  0  0  0  0
    1.3858   -1.3858    0.0000 C   0  0  0  0  0  0  0  0  0  0  0  0
   -0.0000   -1.9598    0.0000 C   0  0  0  0  0  0  0  0  0  0  0  0
   -1.3858   -1.3858    0.0000 C   0  0  0  0  0  0  0  0  0  0  0  0
   -1.9598    0.0000    0.0000 C   0  0  0  0  0  0  0  0  0  0  0  0
   -1.3858    1.3858    0.0000 C   0  0  0  0  0  0  0  0  0  0  0  0
    0.0000    1.9598    0.0000 C   0  0  0  0  0  0  0  0  0  0  0  0
    1.3858    1.3858    0.0000 O   0  0  0  0  0  0  0  0  0  0  0  0
    2.8730   -1.5816    0.0000 H   0  0  0  0  0  0  0  0  0  0  0  0
    1.7614   -2.8380    0.0000 H   0  0  0  0  0  0  0  0  0  0  0  0
    0.7613   -3.2523    0.0000 H   0  0  0  0  0  0  0  0  0  0  0  0
   -0.7613   -3.2523    0.0000 H   0  0  0  0  0  0  0  0  0  0  0  0
   -1.7614   -2.8380    0.0000 H   0  0  0  0  0  0  0  0  0  0  0  0
   -2.8380   -1.7614    0.0000 H   0  0  0  0  0  0  0  0  0  0  0  0
   -3.2523   -0.7613    0.0000 H   0  0  0  0  0  0  0  0  0  0  0  0
   -3.2523    0.7613    0.0000 H   0  0  0  0  0  0  0  0  0  0  0  0
   -2.8380    1.7614    0.0000 H   0  0  0  0  0  0  0  0  0  0  0  0
   -1.7614    2.8380    0.0000 H   0  0  0  0  0  0  0  0  0  0  0  0
   -0.7613    3.2523    0.0000 H   0  0  0  0  0  0  0  0  0  0  0  0
    0.9131    3.1499    0.0000 H   0  0  0  0  0  0  0  0  0  0  0  0
  1  2  2  0
  2  3  1  0
  3  4  1  0
  4  5  1  0
  5  6  1  0
  6  7  1  0
  7  8  1  0
  8  9  1  0
  9  2  1  0
  3 10  1  0
  3 11  1  0
  4 12  1  0
  4 13  1  0
  5 14  1  0
  5 15  1  0
  6 16  1  0
  6 17  1  0
  7 18  1  0
  7 19  1  0
  8 20  1  0
  8 21  1  0
M  END
$$$$
