
     RDKit          2D

 70 74  0  0  0  0  0  0  0  0999 V2000
    9.4069    0.9281    0.0000 C   0  0  0  0  0  0  0  0  0  0  0  0
    9.6674    2.4053    0.0000 C   0  0  0  0  0  0  0  0  0  0  0  0
    9.9279    3.8825    0.0000 C   0  0  0  0  0  0  0  0  0  0  0  0
    8.1902    2.6658    0.0000 C   0  0  0  0  0  0  0  0  0  0  0  0
    6.7130    2.9263    0.0000 C   0  0  0  0  0  0  0  0  0  0  0  0
    5.2358    3.1867    0.0000 C   0  0  0  0  0  0  0  0  0  0  0  0
    5.2358    4.6867    0.0000 C   0  0  0  0  0  0  0  0  0  0  0  0
    3.9367    3.9367    0.0000 C   0  0  0  0  0  0  0  0  0  0  0  0
    2.9726    2.7877    0.0000 C   0  0  0  0  0  0  0  0  0  0  0  0
    2.0084    1.6386    0.0000 C   0  0  0  0  0  0  0  0  0  0  0  0
    0.5312    1.8991    0.0000 N   0  0  0  0  0  0  0  0  0  0  0  0
   -0.4330    0.7500    0.0000 C   0  0  0  0  0  0  0  0  0  0  0  0
    0.8660    0.0000    0.0000 C   0  0  0  0  0  0  0  0  0  0  0  0
   -0.4330   -0.7500    0.0000 N   0  0  0  0  0  0  0  0  0  0  0  0
   -1.3972   -1.8991    0.0000 C   0  0  0  0  0  0  0  0  0  0  0  0
   -0.6023   -3.1711    0.0000 C   0  0  0  0  0  0  0  0  0  0  0  0
   -2.1014   -3.2235    0.0000 N   0  0  0  0  0  0  0  0  0  0  0  0
   -3.5786   -2.9630    0.0000 C   0  0  0  0  0  0  0  0  0  0  0  0
   -4.1734   -1.4095    0.0000 C   0  0  0  0  0  0  0  0  0  0  0  0
   -4.6865    0.0000    0.0000 C   0  0  0  0  0  0  0  0  0  0  0  0
   -4.1734    1.4095    0.0000 C   0  0  0  0  0  0  0  0  0  0  0  0
   -2.8744    2.1595    0.0000 C   0  0  0  0  0  0  0  0  0  0  0  0
   -3.9655    3.1889    0.0000 C   0  0  0  0  0  0  0  0  0  0  0  0
   -5.0565    4.2183    0.0000 O   0  0  0  0  0  0  0  0  0  0  0  0
   -2.2012    3.5000    0.0000 C   0  0  0  0  0  0  0  0  0  0  0  0
   -1.5280    4.8404    0.0000 C   0  0  0  0  0  0  0  0  0  0  0  0
   -3.5417    4.1732    0.0000 C   0  0  0  0  0  0  0  0  0  0  0  0
   -1.3972    1.8991    0.0000 N   0  0  0  0  0  0  0  0  0  0  0  0
   -2.8744   -2.1595    0.0000 N   0  0  0  0  0  0  0  0  0  0  0  0
    9.1465   -0.5491    0.0000 H   0  0  0  0  0  0  0  0  0  0  0  0
   10.8842    0.6676    0.0000 H   0  0  0  0  0  0  0  0  0  0  0  0
    8.5224    0.9744    0.0000 H   0  0  0  0  0  0  0  0  0  0  0  0
   11.1446    2.1448    0.0000 H   0  0  0  0  0  0  0  0  0  0  0  0
   10.1884    5.3597    0.0000 H   0  0  0  0  0  0  0  0  0  0  0  0
   11.4051    3.6221    0.0000 H   0  0  0  0  0  0  0  0  0  0  0  0
    9.0809    4.1415    0.0000 H   0  0  0  0  0  0  0  0  0  0  0  0
    8.2365    3.5503    0.0000 H   0  0  0  0  0  0  0  0  0  0  0  0
    7.9312    1.8188    0.0000 H   0  0  0  0  0  0  0  0  0  0  0  0
    7.1077    4.2173    0.0000 H   0  0  0  0  0  0  0  0  0  0  0  0
    6.4525    1.4490    0.0000 H   0  0  0  0  0  0  0  0  0  0  0  0
    4.9321    1.8713    0.0000 H   0  0  0  0  0  0  0  0  0  0  0  0
    4.7228    6.0963    0.0000 H   0  0  0  0  0  0  0  0  0  0  0  0
    6.5268    5.0815    0.0000 H   0  0  0  0  0  0  0  0  0  0  0  0
    2.9726    5.0858    0.0000 H   0  0  0  0  0  0  0  0  0  0  0  0
    3.8932    1.8003    0.0000 H   0  0  0  0  0  0  0  0  0  0  0  0
    1.8235    3.7518    0.0000 H   0  0  0  0  0  0  0  0  0  0  0  0
    2.4239    0.4969    0.0000 H   0  0  0  0  0  0  0  0  0  0  0  0
    1.7507    0.6427    0.0000 H   0  0  0  0  0  0  0  0  0  0  0  0
    1.8302   -1.1491    0.0000 H   0  0  0  0  0  0  0  0  0  0  0  0
    0.7885   -2.6092    0.0000 H   0  0  0  0  0  0  0  0  0  0  0  0
   -0.2904   -4.6384    0.0000 H   0  0  0  0  0  0  0  0  0  0  0  0
   -3.6832   -4.4594    0.0000 H   0  0  0  0  0  0  0  0  0  0  0  0
   -5.0601   -3.1977    0.0000 H   0  0  0  0  0  0  0  0  0  0  0  0
   -5.4315   -2.2265    0.0000 H   0  0  0  0  0  0  0  0  0  0  0  0
   -5.8897   -0.8957    0.0000 H   0  0  0  0  0  0  0  0  0  0  0  0
   -5.9899    0.7424    0.0000 H   0  0  0  0  0  0  0  0  0  0  0  0
   -5.6709    1.4968    0.0000 H   0  0  0  0  0  0  0  0  0  0  0  0
   -5.0196    2.6481    0.0000 H   0  0  0  0  0  0  0  0  0  0  0  0
   -3.2307    4.4966    0.0000 H   0  0  0  0  0  0  0  0  0  0  0  0
   -5.2282    2.3793    0.0000 H   0  0  0  0  0  0  0  0  0  0  0  0
   -4.8911    5.7091    0.0000 H   0  0  0  0  0  0  0  0  0  0  0  0
   -0.7887    2.9952    0.0000 H   0  0  0  0  0  0  0  0  0  0  0  0
   -0.8548    6.1809    0.0000 H   0  0  0  0  0  0  0  0  0  0  0  0
   -0.2796    4.0089    0.0000 H   0  0  0  0  0  0  0  0  0  0  0  0
   -0.1155    4.3357    0.0000 H   0  0  0  0  0  0  0  0  0  0  0  0
   -4.5517    5.2821    0.0000 H   0  0  0  0  0  0  0  0  0  0  0  0
   -2.7101    5.4216    0.0000 H   0  0  0  0  0  0  0  0  0  0  0  0
   -3.0369    5.5857    0.0000 H   0  0  0  0  0  0  0  0  0  0  0  0
   -0.4944    3.0970    0.0000 H   0  0  0  0  0  0  0  0  0  0  0  0
   -3.1349   -3.6368    0.0000 H   0  0  0  0  0  0  0  0  0  0  0  0
  1  2  1  0
  2  3  1  0
  2  4  1  0
  4  5  1  0
  5  6  1  0
  6  7  1  0
  7  8  1  0
  8  9  1  0
  9 10  1  0
 10 11  2  3
 12 11  1  1
 12 13  1  0
 13 14  1  0
 14 15  1  0
 15 16  1  1
 16 17  1  0
 17 18  1  0
 18 19  1  0
 19 20  1  0
 20 21  1  0
 21 22  1  0
 22 23  1  1
 23 24  1  0
 22 25  1  0
 25 26  1  0
 25 27  1  0
 22 28  1  0
 19 29  1  0
  8  6  1  0
 14 12  1  0
 17 15  1  0
 28 12  1  0
 29 15  1  0
  1 30  1  0
  1 31  1  0
  1 32  1  0
  2 33  1  0
  3 34  1  0
  3 35  1  0
  3 36  1  0
  4 37  1  0
  4 38  1  0
  5 39  1  0
  5 40  1  0
  6 41  1  6
  7 42  1  0
  7 43  1  0
  8 44  1  6
  9 45  1  0
  9 46  1  0
 10 47  1  0
 13 48  1  0
 13 49  1  0
 16 50  1  0
 16 51  1  0
 18 52  1  0
 18 53  1  0
 19 54  1  1
 20 55  1  0
 20 56  1  0
 21 57  1  0
 21 58  1  0
 23 59  1  0
 23 60  1  0
 24 61  1  0
 25 62  1  0
 26 63  1  0
 26 64  1  0
 26 65  1  0
 27 66  1  0
 27 67  1  0
 27 68  1  0
 28 69  1  0
 29 70  1  0
M  END
$$$$
