
     RDKit          2D

 43 45  0  0  0  0  0  0  0  0999 V2000
    4.6048   -5.3542    0.0000 O   0  0  0  0  0  0  0  0  0  0  0  0
    4.6309   -3.8544    0.0000 C   0  0  0  0  0  0  0  0  0  0  0  0
    6.0798   -3.4662    0.0000 O   0  0  0  0  0  0  0  0  0  0  0  0
    3.5702   -2.7938    0.0000 C   0  0  0  0  0  0  0  0  0  0  0  0
    2.5095   -1.7331    0.0000 C   0  0  0  0  0  0  0  0  0  0  0  0
    1.0607   -2.1213    0.0000 C   0  0  0  0  0  0  0  0  0  0  0  0
   -0.0000   -1.0607    0.0000 C   0  0  0  0  0  0  0  0  0  0  0  0
    1.0607    0.0000    0.0000 C   0  0  0  0  0  0  0  0  0  0  0  0
    0.0000    1.0607    0.0000 C   0  0  0  0  0  0  0  0  0  0  0  0
   -0.3882    2.5095    0.0000 C   0  0  0  0  0  0  0  0  0  0  0  0
   -1.8371    2.8978    0.0000 C   0  0  0  0  0  0  0  0  0  0  0  0
   -2.8978    1.8371    0.0000 C   0  0  0  0  0  0  0  0  0  0  0  0
   -4.2572    1.2032    0.0000 O   0  0  0  0  0  0  0  0  0  0  0  0
   -2.5095    0.3882    0.0000 C   0  0  0  0  0  0  0  0  0  0  0  0
   -1.0607    0.0000    0.0000 C   0  0  0  0  0  0  0  0  0  0  0  0
    2.5095   -3.8544    0.0000 C   0  0  0  0  0  0  0  0  0  0  0  0
    1.4489   -4.9151    0.0000 C   0  0  0  0  0  0  0  0  0  0  0  0
    0.8150   -6.2745    0.0000 C   0  0  0  0  0  0  0  0  0  0  0  0
    2.3093   -6.1438    0.0000 C   0  0  0  0  0  0  0  0  0  0  0  0
    7.1404   -4.5268    0.0000 H   0  0  0  0  0  0  0  0  0  0  0  0
    4.6309   -1.7331    0.0000 H   0  0  0  0  0  0  0  0  0  0  0  0
    2.7388   -0.8775    0.0000 H   0  0  0  0  0  0  0  0  0  0  0  0
    0.6510   -3.1352    0.0000 H   0  0  0  0  0  0  0  0  0  0  0  0
   -1.0607   -2.1213    0.0000 H   0  0  0  0  0  0  0  0  0  0  0  0
    2.1213    1.0607    0.0000 H   0  0  0  0  0  0  0  0  0  0  0  0
    1.8199   -0.4561    0.0000 H   0  0  0  0  0  0  0  0  0  0  0  0
    1.3808    1.6467    0.0000 H   0  0  0  0  0  0  0  0  0  0  0  0
   -0.2575    4.0038    0.0000 H   0  0  0  0  0  0  0  0  0  0  0  0
    1.0790    2.8215    0.0000 H   0  0  0  0  0  0  0  0  0  0  0  0
   -3.0658    3.7581    0.0000 H   0  0  0  0  0  0  0  0  0  0  0  0
   -1.2032    4.2572    0.0000 H   0  0  0  0  0  0  0  0  0  0  0  0
   -3.7581    3.0658    0.0000 H   0  0  0  0  0  0  0  0  0  0  0  0
   -5.4860    2.0636    0.0000 H   0  0  0  0  0  0  0  0  0  0  0  0
   -2.8215   -1.0790    0.0000 H   0  0  0  0  0  0  0  0  0  0  0  0
   -4.0038    0.2575    0.0000 H   0  0  0  0  0  0  0  0  0  0  0  0
   -1.6467   -1.3808    0.0000 H   0  0  0  0  0  0  0  0  0  0  0  0
    3.5702   -4.9151    0.0000 H   0  0  0  0  0  0  0  0  0  0  0  0
    1.5722   -3.2913    0.0000 H   0  0  0  0  0  0  0  0  0  0  0  0
    0.1244   -4.2109    0.0000 H   0  0  0  0  0  0  0  0  0  0  0  0
   -0.6339   -5.8863    0.0000 H   0  0  0  0  0  0  0  0  0  0  0  0
    0.6842   -7.7688    0.0000 H   0  0  0  0  0  0  0  0  0  0  0  0
    2.6975   -7.5927    0.0000 H   0  0  0  0  0  0  0  0  0  0  0  0
    3.7817   -5.8577    0.0000 H   0  0  0  0  0  0  0  0  0  0  0  0
  1  2  2  0
  2  3  1  0
  2  4  1  0
  4  5  1  0
  5  6  2  3
  6  7  1  0
  7  8  1  0
  8  9  1  0
  9 10  1  0
 10 11  1  0
 11 12  1  0
 12 13  1  0
 12 14  1  0
 14 15  1  0
  4 16  1  0
 16 17  1  0
 17 18  1  0
 18 19  1  0
 15  7  1  0
 19 17  1  0
 15  9  1  0
  3 20  1  0
  4 21  1  1
  5 22  1  0
  6 23  1  0
  7 24  1  1
  8 25  1  0
  8 26  1  0
  9 27  1  6
 10 28  1  0
 10 29  1  0
 11 30  1  0
 11 31  1  0
 12 32  1  1
 13 33  1  0
 14 34  1  0
 14 35  1  0
 15 36  1  1
 16 37  1  0
 16 38  1  0
 17 39  1  0
 18 40  1  0
 18 41  1  0
 19 42  1  0
 19 43  1  0
M  END
$$$$
