
     RDKit          2D

 44 47  0  0  0  0  0  0  0  0999 V2000
   -1.3928    5.2656    0.0000 C   0  0  0  0  0  0  0  0  0  0  0  0
   -0.0225    4.6555    0.0000 C   0  0  0  0  0  0  0  0  0  0  0  0
    0.7275    3.3565    0.0000 C   0  0  0  0  0  0  0  0  0  0  0  0
    0.5707    1.8647    0.0000 C   0  0  0  0  0  0  0  0  0  0  0  0
   -0.4330    0.7500    0.0000 C   0  0  0  0  0  0  0  0  0  0  0  0
    0.8660    0.0000    0.0000 C   0  0  0  0  0  0  0  0  0  0  0  0
   -0.4330   -0.7500    0.0000 C   0  0  0  0  0  0  0  0  0  0  0  0
   -1.9002    0.4381    0.0000 C   0  0  0  0  0  0  0  0  0  0  0  0
   -3.2706    1.0482    0.0000 C   0  0  0  0  0  0  0  0  0  0  0  0
   -3.5824   -0.4190    0.0000 C   0  0  0  0  0  0  0  0  0  0  0  0
   -4.6971    0.5847    0.0000 C   0  0  0  0  0  0  0  0  0  0  0  0
   -5.8792   -0.3388    0.0000 C   0  0  0  0  0  0  0  0  0  0  0  0
   -7.3057   -0.8023    0.0000 C   0  0  0  0  0  0  0  0  0  0  0  0
   -6.9939    0.6649    0.0000 C   0  0  0  0  0  0  0  0  0  0  0  0
   -4.0206    2.3473    0.0000 N   0  0  0  0  0  0  0  0  0  0  0  0
   -3.8638    3.8391    0.0000 C   0  0  0  0  0  0  0  0  0  0  0  0
   -2.8601    4.9538    0.0000 C   0  0  0  0  0  0  0  0  0  0  0  0
   -1.9789    6.6464    0.0000 H   0  0  0  0  0  0  0  0  0  0  0  0
   -0.5325    6.4944    0.0000 H   0  0  0  0  0  0  0  0  0  0  0  0
    0.3149    6.1171    0.0000 H   0  0  0  0  0  0  0  0  0  0  0  0
    1.3957    5.1439    0.0000 H   0  0  0  0  0  0  0  0  0  0  0  0
    1.8596    4.3406    0.0000 H   0  0  0  0  0  0  0  0  0  0  0  0
    2.1619    2.9180    0.0000 H   0  0  0  0  0  0  0  0  0  0  0  0
    2.0650    1.9954    0.0000 H   0  0  0  0  0  0  0  0  0  0  0  0
    1.1902    1.3631    0.0000 H   0  0  0  0  0  0  0  0  0  0  0  0
    1.4490    0.5436    0.0000 H   0  0  0  0  0  0  0  0  0  0  0  0
    1.8302   -1.1491    0.0000 H   0  0  0  0  0  0  0  0  0  0  0  0
    0.0800   -2.1595    0.0000 H   0  0  0  0  0  0  0  0  0  0  0  0
   -1.8033   -1.3602    0.0000 H   0  0  0  0  0  0  0  0  0  0  0  0
   -1.6657   -1.0434    0.0000 H   0  0  0  0  0  0  0  0  0  0  0  0
   -2.4377   -0.9623    0.0000 H   0  0  0  0  0  0  0  0  0  0  0  0
   -2.3689   -1.3007    0.0000 H   0  0  0  0  0  0  0  0  0  0  0  0
   -4.2163   -1.7785    0.0000 H   0  0  0  0  0  0  0  0  0  0  0  0
   -5.4013    1.9091    0.0000 H   0  0  0  0  0  0  0  0  0  0  0  0
   -5.3416   -1.7392    0.0000 H   0  0  0  0  0  0  0  0  0  0  0  0
   -7.0970   -2.2877    0.0000 H   0  0  0  0  0  0  0  0  0  0  0  0
   -8.8048   -0.7500    0.0000 H   0  0  0  0  0  0  0  0  0  0  0  0
   -8.3846    1.2268    0.0000 H   0  0  0  0  0  0  0  0  0  0  0  0
   -6.5304    2.0915    0.0000 H   0  0  0  0  0  0  0  0  0  0  0  0
   -5.5196    2.3997    0.0000 H   0  0  0  0  0  0  0  0  0  0  0  0
   -5.3310    3.5272    0.0000 H   0  0  0  0  0  0  0  0  0  0  0  0
   -4.7665    5.0370    0.0000 H   0  0  0  0  0  0  0  0  0  0  0  0
   -4.1458    5.7264    0.0000 H   0  0  0  0  0  0  0  0  0  0  0  0
   -2.8863    6.4535    0.0000 H   0  0  0  0  0  0  0  0  0  0  0  0
  1  2  1  0
  2  3  1  0
  3  4  1  0
  4  5  1  0
  5  6  1  0
  6  7  1  0
  5  8  1  0
  8  9  1  0
  9 10  1  0
 10 11  1  0
 11 12  1  0
 12 13  1  0
 13 14  1  0
  9 15  1  0
 15 16  1  0
 16 17  1  0
 17  1  1  0
  7  5  1  0
 11  9  1  0
 14 12  1  0
  1 18  1  0
  1 19  1  0
  2 20  1  0
  2 21  1  0
  3 22  1  0
  3 23  1  0
  4 24  1  0
  4 25  1  0
  6 26  1  0
  6 27  1  0
  7 28  1  0
  7 29  1  0
  8 30  1  0
  8 31  1  0
 10 32  1  0
 10 33  1  0
 11 34  1  0
 12 35  1  0
 13 36  1  0
 13 37  1  0
 14 38  1  0
 14 39  1  0
 15 40  1  0
 16 41  1  0
 16 42  1  0
 17 43  1  0
 17 44  1  0
M  END
$$$$
