
     RDKit          2D

 63 64  0  0  0  0  0  0  0  0999 V2000
   13.1776    2.4841    0.0000 C   0  0  0  0  0  0  0  0  0  0  0  0
   11.7812    3.0321    0.0000 C   0  0  0  0  0  0  0  0  0  0  0  0
   10.3849    3.5802    0.0000 C   0  0  0  0  0  0  0  0  0  0  0  0
    8.9886    4.1282    0.0000 N   0  0  0  0  0  0  0  0  0  0  0  0
    7.8159    3.1929    0.0000 C   0  0  0  0  0  0  0  0  0  0  0  0
    6.6431    2.2577    0.0000 C   0  0  0  0  0  0  0  0  0  0  0  0
    5.4704    1.3225    0.0000 C   0  0  0  0  0  0  0  0  0  0  0  0
    5.6939   -0.1608    0.0000 O   0  0  0  0  0  0  0  0  0  0  0  0
    4.0741    1.8705    0.0000 O   0  0  0  0  0  0  0  0  0  0  0  0
    2.9013    0.9352    0.0000 C   0  0  0  0  0  0  0  0  0  0  0  0
    1.7286    0.0000    0.0000 C   0  0  0  0  0  0  0  0  0  0  0  0
    1.0777    1.3515    0.0000 C   0  0  0  0  0  0  0  0  0  0  0  0
   -0.3846    1.6852    0.0000 C   0  0  0  0  0  0  0  0  0  0  0  0
   -1.5574    0.7500    0.0000 C   0  0  0  0  0  0  0  0  0  0  0  0
   -1.5574   -0.7500    0.0000 C   0  0  0  0  0  0  0  0  0  0  0  0
   -0.3846   -1.6852    0.0000 C   0  0  0  0  0  0  0  0  0  0  0  0
    0.2662   -3.0367    0.0000 C   0  0  0  0  0  0  0  0  0  0  0  0
    1.4389   -3.9719    0.0000 C   0  0  0  0  0  0  0  0  0  0  0  0
    1.4389   -5.4719    0.0000 C   0  0  0  0  0  0  0  0  0  0  0  0
    0.2662   -6.4072    0.0000 C   0  0  0  0  0  0  0  0  0  0  0  0
   -1.1962   -6.0734    0.0000 C   0  0  0  0  0  0  0  0  0  0  0  0
   -1.8470   -4.7219    0.0000 C   0  0  0  0  0  0  0  0  0  0  0  0
   -1.1962   -3.3705    0.0000 C   0  0  0  0  0  0  0  0  0  0  0  0
    1.0777   -1.3515    0.0000 C   0  0  0  0  0  0  0  0  0  0  0  0
   14.5739    1.9361    0.0000 H   0  0  0  0  0  0  0  0  0  0  0  0
   13.7256    3.8804    0.0000 H   0  0  0  0  0  0  0  0  0  0  0  0
   12.6295    1.0878    0.0000 H   0  0  0  0  0  0  0  0  0  0  0  0
   12.3293    4.4284    0.0000 H   0  0  0  0  0  0  0  0  0  0  0  0
   11.2332    1.6358    0.0000 H   0  0  0  0  0  0  0  0  0  0  0  0
    9.8369    2.1838    0.0000 H   0  0  0  0  0  0  0  0  0  0  0  0
   10.9329    4.9765    0.0000 H   0  0  0  0  0  0  0  0  0  0  0  0
    8.7651    5.6114    0.0000 H   0  0  0  0  0  0  0  0  0  0  0  0
    6.8806    4.3657    0.0000 H   0  0  0  0  0  0  0  0  0  0  0  0
    8.7511    2.0202    0.0000 H   0  0  0  0  0  0  0  0  0  0  0  0
    7.5784    1.0849    0.0000 H   0  0  0  0  0  0  0  0  0  0  0  0
    5.7079    3.4304    0.0000 H   0  0  0  0  0  0  0  0  0  0  0  0
    3.8366   -0.2375    0.0000 H   0  0  0  0  0  0  0  0  0  0  0  0
    2.4840    1.6144    0.0000 H   0  0  0  0  0  0  0  0  0  0  0  0
    3.0066   -0.7853    0.0000 H   0  0  0  0  0  0  0  0  0  0  0  0
    1.2606    2.8403    0.0000 H   0  0  0  0  0  0  0  0  0  0  0  0
    1.8275    1.6223    0.0000 H   0  0  0  0  0  0  0  0  0  0  0  0
   -1.4346    2.7564    0.0000 H   0  0  0  0  0  0  0  0  0  0  0  0
    0.0966    3.1059    0.0000 H   0  0  0  0  0  0  0  0  0  0  0  0
   -3.0496    0.5970    0.0000 H   0  0  0  0  0  0  0  0  0  0  0  0
   -2.3681    2.0120    0.0000 H   0  0  0  0  0  0  0  0  0  0  0  0
   -2.3681   -2.0120    0.0000 H   0  0  0  0  0  0  0  0  0  0  0  0
   -3.0496   -0.5970    0.0000 H   0  0  0  0  0  0  0  0  0  0  0  0
   -1.5574   -2.6205    0.0000 H   0  0  0  0  0  0  0  0  0  0  0  0
    1.4389   -2.1015    0.0000 H   0  0  0  0  0  0  0  0  0  0  0  0
    2.2496   -2.7099    0.0000 H   0  0  0  0  0  0  0  0  0  0  0  0
    2.9311   -4.1250    0.0000 H   0  0  0  0  0  0  0  0  0  0  0  0
    2.9311   -5.3189    0.0000 H   0  0  0  0  0  0  0  0  0  0  0  0
    2.2496   -6.7340    0.0000 H   0  0  0  0  0  0  0  0  0  0  0  0
    1.3162   -7.4784    0.0000 H   0  0  0  0  0  0  0  0  0  0  0  0
   -0.2151   -7.8279    0.0000 H   0  0  0  0  0  0  0  0  0  0  0  0
   -1.3791   -7.5622    0.0000 H   0  0  0  0  0  0  0  0  0  0  0  0
   -2.6070   -6.5829    0.0000 H   0  0  0  0  0  0  0  0  0  0  0  0
   -3.1250   -5.5072    0.0000 H   0  0  0  0  0  0  0  0  0  0  0  0
   -3.1250   -3.9366    0.0000 H   0  0  0  0  0  0  0  0  0  0  0  0
   -2.6070   -2.8609    0.0000 H   0  0  0  0  0  0  0  0  0  0  0  0
   -1.3791   -1.8817    0.0000 H   0  0  0  0  0  0  0  0  0  0  0  0
    2.4885   -1.8610    0.0000 H   0  0  0  0  0  0  0  0  0  0  0  0
    1.2606   -2.8403    0.0000 H   0  0  0  0  0  0  0  0  0  0  0  0
  1  2  1  0
  2  3  1  0
  3  4  1  0
  4  5  1  0
  5  6  1  0
  6  7  1  0
  7  8  2  0
  7  9  1  0
  9 10  1  0
 10 11  1  0
 11 12  1  0
 12 13  1  0
 13 14  1  0
 14 15  1  0
 15 16  1  0
 16 17  1  0
 17 18  1  0
 18 19  1  0
 19 20  1  0
 20 21  1  0
 21 22  1  0
 22 23  1  0
 16 24  1  0
 24 11  1  0
 23 17  1  0
  1 25  1  0
  1 26  1  0
  1 27  1  0
  2 28  1  0
  2 29  1  0
  3 30  1  0
  3 31  1  0
  4 32  1  0
  5 33  1  0
  5 34  1  0
  6 35  1  0
  6 36  1  0
 10 37  1  0
 10 38  1  0
 11 39  1  1
 12 40  1  0
 12 41  1  0
 13 42  1  0
 13 43  1  0
 14 44  1  0
 14 45  1  0
 15 46  1  0
 15 47  1  0
 16 48  1  6
 17 49  1  0
 18 50  1  0
 18 51  1  0
 19 52  1  0
 19 53  1  0
 20 54  1  0
 20 55  1  0
 21 56  1  0
 21 57  1  0
 22 58  1  0
 22 59  1  0
 23 60  1  0
 23 61  1  0
 24 62  1  0
 24 63  1  0
M  END
$$$$
