
     RDKit          2D

 27 31  0  0  0  0  0  0  0  0999 V2000
    1.8302    1.1491    0.0000 O   0  0  0  0  0  0  0  0  0  0  0  0
    0.8660    0.0000    0.0000 C   0  0  0  0  0  0  0  0  0  0  0  0
   -0.4330    0.7500    0.0000 N   0  0  0  0  0  0  0  0  0  0  0  0
   -1.7321    0.0000    0.0000 C   0  0  0  0  0  0  0  0  0  0  0  0
   -1.7321   -1.5000    0.0000 C   0  0  0  0  0  0  0  0  0  0  0  0
   -1.7321   -3.0000    0.0000 C   0  0  0  0  0  0  0  0  0  0  0  0
   -0.2548   -3.2605    0.0000 C   0  0  0  0  0  0  0  0  0  0  0  0
    0.2582   -4.6700    0.0000 Mg  0  0  0  0  0  2  0  0  0  0  0  0
   -3.0311   -2.2500    0.0000 C   0  0  0  0  0  0  0  0  0  0  0  0
   -3.9953   -3.3991    0.0000 C   0  0  0  0  0  0  0  0  0  0  0  0
   -4.9595   -4.5481    0.0000 C   0  0  0  0  0  0  0  0  0  0  0  0
   -6.2585   -5.2981    0.0000 C   0  0  0  0  0  0  0  0  0  0  0  0
   -6.2585   -3.7981    0.0000 C   0  0  0  0  0  0  0  0  0  0  0  0
   -0.4330   -0.7500    0.0000 C   0  0  0  0  0  0  0  0  0  0  0  0
    3.3074    0.8886    0.0000 H   0  0  0  0  0  0  0  0  0  0  0  0
    1.8302   -1.1491    0.0000 H   0  0  0  0  0  0  0  0  0  0  0  0
   -3.0311    0.7500    0.0000 H   0  0  0  0  0  0  0  0  0  0  0  0
   -2.0357   -4.3154    0.0000 H   0  0  0  0  0  0  0  0  0  0  0  0
    0.7093   -2.1114    0.0000 H   0  0  0  0  0  0  0  0  0  0  0  0
   -3.9953   -1.1009    0.0000 H   0  0  0  0  0  0  0  0  0  0  0  0
   -4.9159   -2.4117    0.0000 H   0  0  0  0  0  0  0  0  0  0  0  0
   -3.0746   -4.3864    0.0000 H   0  0  0  0  0  0  0  0  0  0  0  0
   -3.9953   -5.6972    0.0000 H   0  0  0  0  0  0  0  0  0  0  0  0
   -5.7455   -6.7077    0.0000 H   0  0  0  0  0  0  0  0  0  0  0  0
   -7.7357   -5.5586    0.0000 H   0  0  0  0  0  0  0  0  0  0  0  0
   -7.7357   -3.5377    0.0000 H   0  0  0  0  0  0  0  0  0  0  0  0
   -5.9548   -2.4827    0.0000 H   0  0  0  0  0  0  0  0  0  0  0  0
  1  2  1  0
  2  3  1  0
  3  4  1  0
  4  5  1  0
  5  6  1  0
  6  7  1  0
  7  8  2  0
  6  9  1  0
  9 10  1  0
 10 11  1  0
 11 12  1  0
 12 13  1  0
  5 14  1  6
 14  2  1  0
 14  3  1  1
 14  4  1  0
  9  5  1  0
 13 11  1  0
  1 15  1  0
  2 16  1  1
  4 17  1  1
  6 18  1  1
  7 19  1  0
  9 20  1  6
 10 21  1  0
 10 22  1  0
 11 23  1  0
 12 24  1  0
 12 25  1  0
 13 26  1  0
 13 27  1  0
M  END
$$$$
