
     RDKit          2D

 92 95  0  0  0  0  0  0  0  0999 V2000
  -10.1298   -6.9406    0.0000 C   0  0  0  0  0  0  0  0  0  0  0  0
   -9.1656   -5.7916    0.0000 C   0  0  0  0  0  0  0  0  0  0  0  0
   -9.6786   -4.3820    0.0000 C   0  0  0  0  0  0  0  0  0  0  0  0
   -7.6884   -6.0520    0.0000 C   0  0  0  0  0  0  0  0  0  0  0  0
   -6.2112   -6.3125    0.0000 O   0  0  0  0  0  0  0  0  0  0  0  0
   -5.2470   -5.1634    0.0000 O   0  0  0  0  0  0  0  0  0  0  0  0
   -3.7698   -5.4239    0.0000 C   0  0  0  0  0  0  0  0  0  0  0  0
   -4.0303   -6.9011    0.0000 C   0  0  0  0  0  0  0  0  0  0  0  0
   -3.5093   -3.9467    0.0000 C   0  0  0  0  0  0  0  0  0  0  0  0
   -3.2488   -2.4695    0.0000 O   0  0  0  0  0  0  0  0  0  0  0  0
   -4.3979   -1.5053    0.0000 C   0  0  0  0  0  0  0  0  0  0  0  0
   -3.6479   -0.2063    0.0000 C   0  0  0  0  0  0  0  0  0  0  0  0
   -3.3874    1.2709    0.0000 C   0  0  0  0  0  0  0  0  0  0  0  0
   -3.1270    2.7482    0.0000 C   0  0  0  0  0  0  0  0  0  0  0  0
   -1.9102    1.0105    0.0000 C   0  0  0  0  0  0  0  0  0  0  0  0
   -2.1707   -0.4667    0.0000 N   0  0  0  0  0  0  0  0  0  0  0  0
   -0.4330    0.7500    0.0000 C   0  0  0  0  0  0  0  0  0  0  0  0
    1.0442    1.0105    0.0000 C   0  0  0  0  0  0  0  0  0  0  0  0
    0.0800    2.1595    0.0000 C   0  0  0  0  0  0  0  0  0  0  0  0
    0.5930    3.5691    0.0000 C   0  0  0  0  0  0  0  0  0  0  0  0
   -0.8842    3.3086    0.0000 C   0  0  0  0  0  0  0  0  0  0  0  0
   -1.3972    4.7181    0.0000 C   0  0  0  0  0  0  0  0  0  0  0  0
   -1.9102    6.1277    0.0000 O   0  0  0  0  0  0  0  0  0  0  0  0
   -3.3874    6.3882    0.0000 C   0  0  0  0  0  0  0  0  0  0  0  0
   -4.8646    6.6486    0.0000 O   0  0  0  0  0  0  0  0  0  0  0  0
   -5.3777    8.0582    0.0000 C   0  0  0  0  0  0  0  0  0  0  0  0
   -5.1479   -0.2063    0.0000 C   0  0  0  0  0  0  0  0  0  0  0  0
   -5.4084    1.2709    0.0000 N   0  0  0  0  0  0  0  0  0  0  0  0
   -6.5574   -0.7193    0.0000 C   0  0  0  0  0  0  0  0  0  0  0  0
   -7.9670   -1.2323    0.0000 C   0  0  0  0  0  0  0  0  0  0  0  0
   -9.3765   -1.7454    0.0000 C   0  0  0  0  0  0  0  0  0  0  0  0
  -10.7861   -2.2584    0.0000 C   0  0  0  0  0  0  0  0  0  0  0  0
   -8.4800    0.1772    0.0000 O   0  0  0  0  0  0  0  0  0  0  0  0
   -9.9572    0.4377    0.0000 C   0  0  0  0  0  0  0  0  0  0  0  0
  -10.2177   -1.0395    0.0000 C   0  0  0  0  0  0  0  0  0  0  0  0
   -9.6968    1.9149    0.0000 C   0  0  0  0  0  0  0  0  0  0  0  0
  -11.1740    2.1754    0.0000 C   0  0  0  0  0  0  0  0  0  0  0  0
  -11.4344    0.6982    0.0000 C   0  0  0  0  0  0  0  0  0  0  0  0
  -11.6070   -6.6802    0.0000 H   0  0  0  0  0  0  0  0  0  0  0  0
   -9.6168   -8.3502    0.0000 H   0  0  0  0  0  0  0  0  0  0  0  0
  -10.5175   -3.1385    0.0000 H   0  0  0  0  0  0  0  0  0  0  0  0
  -11.0882   -4.8951    0.0000 H   0  0  0  0  0  0  0  0  0  0  0  0
   -8.2691   -3.8690    0.0000 H   0  0  0  0  0  0  0  0  0  0  0  0
   -7.4279   -4.5748    0.0000 H   0  0  0  0  0  0  0  0  0  0  0  0
   -7.9489   -7.5292    0.0000 H   0  0  0  0  0  0  0  0  0  0  0  0
   -2.2926   -5.6844    0.0000 H   0  0  0  0  0  0  0  0  0  0  0  0
   -4.2907   -8.3783    0.0000 H   0  0  0  0  0  0  0  0  0  0  0  0
   -2.5530   -7.1616    0.0000 H   0  0  0  0  0  0  0  0  0  0  0  0
   -5.5266   -7.0058    0.0000 H   0  0  0  0  0  0  0  0  0  0  0  0
   -4.9865   -3.6862    0.0000 H   0  0  0  0  0  0  0  0  0  0  0  0
   -2.0321   -4.2072    0.0000 H   0  0  0  0  0  0  0  0  0  0  0  0
   -5.4209   -2.6024    0.0000 H   0  0  0  0  0  0  0  0  0  0  0  0
   -2.9871   -0.6521    0.0000 H   0  0  0  0  0  0  0  0  0  0  0  0
   -4.7577    1.8811    0.0000 H   0  0  0  0  0  0  0  0  0  0  0  0
   -3.0485    4.2461    0.0000 H   0  0  0  0  0  0  0  0  0  0  0  0
   -4.5614    3.1868    0.0000 H   0  0  0  0  0  0  0  0  0  0  0  0
   -1.6498    2.4877    0.0000 H   0  0  0  0  0  0  0  0  0  0  0  0
   -1.6498    2.4877    0.0000 H   0  0  0  0  0  0  0  0  0  0  0  0
   -3.4142   -1.3056    0.0000 H   0  0  0  0  0  0  0  0  0  0  0  0
   -1.1477   -1.5638    0.0000 H   0  0  0  0  0  0  0  0  0  0  0  0
   -0.2502   -0.7388    0.0000 H   0  0  0  0  0  0  0  0  0  0  0  0
    1.5572   -0.3991    0.0000 H   0  0  0  0  0  0  0  0  0  0  0  0
    2.3432    1.7605    0.0000 H   0  0  0  0  0  0  0  0  0  0  0  0
    2.0703    3.3086    0.0000 H   0  0  0  0  0  0  0  0  0  0  0  0
    0.7759    5.0579    0.0000 H   0  0  0  0  0  0  0  0  0  0  0  0
   -2.1832    2.5586    0.0000 H   0  0  0  0  0  0  0  0  0  0  0  0
   -2.8588    4.3808    0.0000 H   0  0  0  0  0  0  0  0  0  0  0  0
   -0.0607    5.3992    0.0000 H   0  0  0  0  0  0  0  0  0  0  0  0
   -3.1270    7.8654    0.0000 H   0  0  0  0  0  0  0  0  0  0  0  0
   -3.6479    4.9109    0.0000 H   0  0  0  0  0  0  0  0  0  0  0  0
   -5.8907    9.4677    0.0000 H   0  0  0  0  0  0  0  0  0  0  0  0
   -6.7872    7.5451    0.0000 H   0  0  0  0  0  0  0  0  0  0  0  0
   -3.9681    8.5712    0.0000 H   0  0  0  0  0  0  0  0  0  0  0  0
   -6.8179    1.7840    0.0000 H   0  0  0  0  0  0  0  0  0  0  0  0
   -4.3854    2.3680    0.0000 H   0  0  0  0  0  0  0  0  0  0  0  0
   -7.0705    0.6902    0.0000 H   0  0  0  0  0  0  0  0  0  0  0  0
   -6.2201   -2.1809    0.0000 H   0  0  0  0  0  0  0  0  0  0  0  0
   -7.4540   -2.6419    0.0000 H   0  0  0  0  0  0  0  0  0  0  0  0
  -10.4914   -0.7418    0.0000 H   0  0  0  0  0  0  0  0  0  0  0  0
   -8.8635   -3.1549    0.0000 H   0  0  0  0  0  0  0  0  0  0  0  0
  -12.1956   -2.7714    0.0000 H   0  0  0  0  0  0  0  0  0  0  0  0
  -10.4487   -3.7200    0.0000 H   0  0  0  0  0  0  0  0  0  0  0  0
  -11.6249   -1.0149    0.0000 H   0  0  0  0  0  0  0  0  0  0  0  0
  -10.9904   -2.3252    0.0000 H   0  0  0  0  0  0  0  0  0  0  0  0
  -11.6949   -0.7791    0.0000 H   0  0  0  0  0  0  0  0  0  0  0  0
   -9.0358   -1.9631    0.0000 H   0  0  0  0  0  0  0  0  0  0  0  0
   -9.4363    3.3921    0.0000 H   0  0  0  0  0  0  0  0  0  0  0  0
   -8.2195    1.6544    0.0000 H   0  0  0  0  0  0  0  0  0  0  0  0
  -12.6512    2.4358    0.0000 H   0  0  0  0  0  0  0  0  0  0  0  0
  -10.9135    3.6526    0.0000 H   0  0  0  0  0  0  0  0  0  0  0  0
  -12.0446   -0.6721    0.0000 H   0  0  0  0  0  0  0  0  0  0  0  0
  -12.9117    0.9586    0.0000 H   0  0  0  0  0  0  0  0  0  0  0  0
  1  2  2  3
  2  3  1  0
  2  4  1  0
  4  5  1  0
  5  6  1  0
  6  7  1  0
  7  8  1  0
  7  9  1  0
  9 10  1  0
 10 11  1  0
 11 12  1  0
 12 13  1  0
 13 14  1  0
 13 15  1  0
 15 16  1  0
 15 17  1  0
 17 18  1  0
 18 19  1  0
 19 20  1  0
 20 21  1  0
 21 22  1  0
 22 23  1  0
 23 24  1  0
 24 25  1  0
 25 26  1  0
 12 27  1  0
 27 28  1  0
 27 29  1  0
 29 30  1  0
 30 31  1  0
 31 32  1  0
 30 33  1  0
 33 34  1  0
 34 35  1  0
 34 36  1  0
 36 37  1  0
 37 38  1  0
 27 11  1  0
 38 34  1  0
 19 17  1  0
 21 19  1  0
  1 39  1  0
  1 40  1  0
  3 41  1  0
  3 42  1  0
  3 43  1  0
  4 44  1  0
  4 45  1  0
  7 46  1  0
  8 47  1  0
  8 48  1  0
  8 49  1  0
  9 50  1  0
  9 51  1  0
 11 52  1  0
 12 53  1  0
 13 54  1  0
 14 55  1  0
 14 56  1  0
 14 57  1  0
 15 58  1  0
 16 59  1  0
 16 60  1  0
 17 61  1  0
 18 62  1  0
 18 63  1  0
 20 64  1  0
 20 65  1  0
 21 66  1  0
 22 67  1  0
 22 68  1  0
 24 69  1  0
 24 70  1  0
 26 71  1  0
 26 72  1  0
 26 73  1  0
 28 74  1  0
 28 75  1  0
 29 76  1  0
 29 77  1  0
 30 78  1  0
 31 79  1  0
 31 80  1  0
 32 81  1  0
 32 82  1  0
 32 83  1  0
 35 84  1  0
 35 85  1  0
 35 86  1  0
 36 87  1  0
 36 88  1  0
 37 89  1  0
 37 90  1  0
 38 91  1  0
 38 92  1  0
M  END
$$$$
