
     RDKit          3D

 12 13  0  0  0  0  0  0  0  0999 V2000
   10.6781  -18.5538  -10.1656 O   0  0  0  0  0  0  0  0  0  0  0  0
    9.6550  -17.6169  -10.3471 C   0  0  0  0  0  0  0  0  0  0  0  0
    8.8747  -17.8744  -11.6235 C   0  0  0  0  0  0  0  0  0  0  0  0
    8.2519  -16.6204  -12.2487 C   0  0  0  0  0  0  0  0  0  0  0  0
    8.7820  -17.5013   -9.1179 C   0  0  0  0  0  0  0  0  0  0  0  0
    9.1836  -15.9915  -13.2932 C   0  0  0  0  0  0  0  0  0  0  0  0
   10.4651  -15.4912  -12.6870 C   0  0  0  0  0  0  0  0  0  0  0  0
   10.4867  -14.4443  -11.8584 C   0  0  0  0  0  0  0  0  0  0  0  0
   11.7484  -13.9747  -11.2652 C   0  0  0  0  0  0  0  0  0  0  0  0
   11.7727  -12.9399  -10.4305 C   0  0  0  0  0  0  0  0  0  0  0  0
    8.2188  -19.8082  -10.0901 C   0  0  0  0  0  0  0  0  0  0  0  0
    8.2408  -18.2785  -10.3054 C   0  0  0  0  0  0  0  0  0  0  0  0
  2  1  1  0
  3  2  1  0
  4  3  1  0
  5  2  1  0
  6  4  1  0
  7  6  1  0
  8  7  2  3
  9  8  1  0
 10  9  2  0
 12  2  1  0
 12  3  1  0
 12  5  1  0
 12 11  1  0
M  END
$$$$
