
     RDKit          2D

 27 29  0  0  0  0  0  0  0  0999 V2000
    4.6661   -0.5932    0.0000 C   0  0  0  0  0  0  0  0  0  0  0  0
    3.1743   -0.7500    0.0000 C   0  0  0  0  0  0  0  0  0  0  0  0
    3.1743    0.7500    0.0000 C   0  0  0  0  0  0  0  0  0  0  0  0
    1.7477    1.2135    0.0000 C   0  0  0  0  0  0  0  0  0  0  0  0
    0.4487    1.9635    0.0000 O   0  0  0  0  0  0  0  0  0  0  0  0
    0.8660    0.0000    0.0000 C   0  0  0  0  0  0  0  0  0  0  0  0
    1.7477   -1.2135    0.0000 C   0  0  0  0  0  0  0  0  0  0  0  0
   -0.4330    0.7500    0.0000 C   0  0  0  0  0  0  0  0  0  0  0  0
   -1.7321    0.0000    0.0000 C   0  0  0  0  0  0  0  0  0  0  0  0
   -2.6962    1.1491    0.0000 C   0  0  0  0  0  0  0  0  0  0  0  0
   -0.4330   -0.7500    0.0000 C   0  0  0  0  0  0  0  0  0  0  0  0
    6.1579   -0.4364    0.0000 H   0  0  0  0  0  0  0  0  0  0  0  0
    4.8229   -2.0850    0.0000 H   0  0  0  0  0  0  0  0  0  0  0  0
    4.6800    0.2038    0.0000 H   0  0  0  0  0  0  0  0  0  0  0  0
    3.4862   -2.2172    0.0000 H   0  0  0  0  0  0  0  0  0  0  0  0
    3.4862    2.2172    0.0000 H   0  0  0  0  0  0  0  0  0  0  0  0
    3.9713    0.7639    0.0000 H   0  0  0  0  0  0  0  0  0  0  0  0
    2.3578    2.5838    0.0000 H   0  0  0  0  0  0  0  0  0  0  0  0
    0.4487    3.4635    0.0000 H   0  0  0  0  0  0  0  0  0  0  0  0
    2.3578   -2.5838    0.0000 H   0  0  0  0  0  0  0  0  0  0  0  0
    0.4487   -1.9635    0.0000 H   0  0  0  0  0  0  0  0  0  0  0  0
   -0.4330    2.2500    0.0000 H   0  0  0  0  0  0  0  0  0  0  0  0
   -2.6962   -1.1491    0.0000 H   0  0  0  0  0  0  0  0  0  0  0  0
   -3.6604    2.2981    0.0000 H   0  0  0  0  0  0  0  0  0  0  0  0
   -3.8453    0.1849    0.0000 H   0  0  0  0  0  0  0  0  0  0  0  0
   -1.5472    2.1132    0.0000 H   0  0  0  0  0  0  0  0  0  0  0  0
   -0.4330   -2.2500    0.0000 H   0  0  0  0  0  0  0  0  0  0  0  0
  1  2  1  0
  2  3  1  0
  3  4  1  0
  4  5  1  0
  4  6  1  0
  6  7  1  6
  6  8  1  0
  8  9  1  0
  9 10  1  0
  9 11  1  0
  7  2  1  0
 11  8  1  0
 11  6  1  0
  1 12  1  0
  1 13  1  0
  1 14  1  0
  2 15  1  6
  3 16  1  0
  3 17  1  0
  4 18  1  1
  5 19  1  0
  7 20  1  0
  7 21  1  0
  8 22  1  1
  9 23  1  6
 10 24  1  0
 10 25  1  0
 10 26  1  0
 11 27  1  1
M  END
$$$$
