
     RDKit          3D

 23 27  0  0  0  0  0  0  0  0999 V2000
   17.4272  -28.9183   -5.8298 C   0  0  0  0  0  0  0  0  0  0  0  0
   18.7923  -28.9100   -6.5142 C   0  0  0  0  0  0  0  0  0  0  0  0
   19.6199  -27.6389   -6.2173 C   0  0  0  0  0  0  0  0  0  0  0  0
   21.0150  -27.6860   -6.8883 C   0  0  0  0  0  0  0  0  0  0  0  0
   22.2324  -28.3383   -6.1180 C   0  0  0  0  0  0  0  0  0  0  0  0
   22.1458  -29.4675   -5.0053 C   0  0  0  0  0  0  0  0  0  0  0  0
   23.6026  -29.5580   -4.3945 C   0  0  0  0  0  0  0  0  0  0  0  0
   16.7442  -28.9232   -7.1907 C   0  0  0  0  0  0  0  0  0  0  0  0
   18.1016  -28.9050   -7.8790 C   0  0  0  0  0  0  0  0  0  0  0  0
   22.9786  -26.1648   -6.8382 C   0  0  0  0  0  0  0  0  0  0  0  0
   21.0572  -29.3160   -3.8892 C   0  0  0  0  0  0  0  0  0  0  0  0
   24.5145  -29.3703   -6.7540 C   0  0  0  0  0  0  0  0  0  0  0  0
   24.6531  -28.8590   -5.3219 C   0  0  0  0  0  0  0  0  0  0  0  0
   23.0396  -29.1657   -7.2056 C   0  0  0  0  0  0  0  0  0  0  0  0
   22.3211  -30.5153   -7.2584 C   0  0  0  0  0  0  0  0  0  0  0  0
   21.4792  -31.9071   -5.4035 C   0  0  0  0  0  0  0  0  0  0  0  0
   24.4600  -27.4520   -5.3697 O   0  0  0  0  0  0  0  0  0  0  0  0
   21.3918  -30.2623   -2.4040 Cl  0  0  0  0  0  0  0  0  0  0  0  0
   21.9094  -30.7149   -5.8453 C   0  0  0  0  0  0  0  0  0  0  0  0
   22.5524  -26.3918   -4.3530 C   0  0  0  0  0  0  0  0  0  0  0  0
   21.5133  -26.2666   -7.2679 C   0  0  0  0  0  0  0  0  0  0  0  0
   23.2814  -25.0917   -3.9890 C   0  0  0  0  0  0  0  0  0  0  0  0
   23.0988  -27.1064   -5.6339 C   0  0  0  0  0  0  0  0  0  0  0  0
  2  1  1  0
  3  2  1  0
  4  3  1  0
  5  4  1  0
  6  5  1  0
  7  6  1  0
  8  1  1  0
  9  2  1  0
  9  8  1  0
 11  6  1  0
 13  7  1  0
 13 12  1  0
 14  5  1  0
 14 12  1  0
 15 14  1  0
 17 13  1  0
 18 11  1  0
 19  6  1  0
 19 15  1  0
 19 16  2  0
 21  4  1  0
 21 10  1  0
 22 20  1  0
 23  5  1  0
 23 10  1  0
 23 17  1  0
 23 20  1  0
M  END
$$$$
