
     RDKit          2D

 42 50  0  0  0  0  0  0  0  0999 V2000
   -4.2413    3.0000    0.0000 C   0  0  0  0  0  0  0  0  0  0  0  0
   -4.2413    1.5000    0.0000 C   0  0  0  0  0  0  0  0  0  0  0  0
   -4.2413    0.0000    0.0000 C   0  0  0  0  0  0  0  0  0  0  0  0
   -4.2413   -1.5000    0.0000 C   0  0  0  0  0  0  0  0  0  0  0  0
   -2.7413    0.0000    0.0000 C   0  0  0  0  0  0  0  0  0  0  0  0
   -1.8596    1.2135    0.0000 C   0  0  0  0  0  0  0  0  0  0  0  0
   -0.4330    0.7500    0.0000 C   0  0  0  0  0  0  0  0  0  0  0  0
    0.1771    2.1203    0.0000 O   0  0  0  0  0  0  0  0  0  0  0  0
    0.8660    0.0000    0.0000 O   0  0  0  0  0  0  0  0  0  0  0  0
   -0.4330   -0.7500    0.0000 C   0  0  0  0  0  0  0  0  0  0  0  0
   -1.8596   -1.2135    0.0000 C   0  0  0  0  0  0  0  0  0  0  0  0
   -2.1715   -2.6807    0.0000 C   0  0  0  0  0  0  0  0  0  0  0  0
   -2.4833   -4.1480    0.0000 C   0  0  0  0  0  0  0  0  0  0  0  0
   -3.4870   -5.2627    0.0000 N   0  0  0  0  0  0  0  0  0  0  0  0
   -2.3723   -6.2664    0.0000 C   0  0  0  0  0  0  0  0  0  0  0  0
   -0.6675   -2.4092    0.0000 C   0  0  0  0  0  0  0  0  0  0  0  0
    0.6817   -1.7537    0.0000 C   0  0  0  0  0  0  0  0  0  0  0  0
    1.7964   -2.7574    0.0000 C   0  0  0  0  0  0  0  0  0  0  0  0
    0.3698   -3.2209    0.0000 C   0  0  0  0  0  0  0  0  0  0  0  0
   -1.0567   -3.6844    0.0000 C   0  0  0  0  0  0  0  0  0  0  0  0
   -1.3686   -5.1517    0.0000 C   0  0  0  0  0  0  0  0  0  0  0  0
   -4.2413    4.5000    0.0000 H   0  0  0  0  0  0  0  0  0  0  0  0
   -2.7413    3.0000    0.0000 H   0  0  0  0  0  0  0  0  0  0  0  0
   -5.7413    3.0000    0.0000 H   0  0  0  0  0  0  0  0  0  0  0  0
   -3.4501    1.5972    0.0000 H   0  0  0  0  0  0  0  0  0  0  0  0
   -5.7413    1.5000    0.0000 H   0  0  0  0  0  0  0  0  0  0  0  0
   -5.7413    0.0000    0.0000 H   0  0  0  0  0  0  0  0  0  0  0  0
   -4.2413   -3.0000    0.0000 H   0  0  0  0  0  0  0  0  0  0  0  0
   -5.7413   -1.5000    0.0000 H   0  0  0  0  0  0  0  0  0  0  0  0
   -2.7525   -1.6828    0.0000 H   0  0  0  0  0  0  0  0  0  0  0  0
   -2.4962    1.6933    0.0000 H   0  0  0  0  0  0  0  0  0  0  0  0
   -1.2495    2.5838    0.0000 H   0  0  0  0  0  0  0  0  0  0  0  0
    1.6689    2.2771    0.0000 H   0  0  0  0  0  0  0  0  0  0  0  0
   -3.2779   -1.7019    0.0000 H   0  0  0  0  0  0  0  0  0  0  0  0
   -4.9850   -5.3412    0.0000 H   0  0  0  0  0  0  0  0  0  0  0  0
   -2.2938   -7.7643    0.0000 H   0  0  0  0  0  0  0  0  0  0  0  0
   -1.4156   -1.1090    0.0000 H   0  0  0  0  0  0  0  0  0  0  0  0
   -2.0778   -2.9201    0.0000 H   0  0  0  0  0  0  0  0  0  0  0  0
    2.9784   -1.8339    0.0000 H   0  0  0  0  0  0  0  0  0  0  0  0
    2.5006   -4.0818    0.0000 H   0  0  0  0  0  0  0  0  0  0  0  0
    0.8334   -4.6475    0.0000 H   0  0  0  0  0  0  0  0  0  0  0  0
   -0.0321   -5.8326    0.0000 H   0  0  0  0  0  0  0  0  0  0  0  0
  1  2  1  0
  2  3  1  0
  3  4  1  0
  3  5  1  0
  5  6  1  0
  6  7  1  0
  7  8  1  0
  7  9  1  0
  9 10  1  0
 10 11  1  0
 11 12  1  0
 12 13  1  0
 13 14  1  0
 14 15  1  0
 15 16  1  0
 16 17  1  0
 17 18  1  0
 18 19  1  0
 19 20  1  0
 20 21  1  0
 11  5  1  0
 20 12  1  0
 12  5  1  0
 20 13  1  0
 10  7  1  0
 21 13  1  0
 17 10  1  0
 21 15  1  0
 19 17  1  0
  1 22  1  0
  1 23  1  0
  1 24  1  0
  2 25  1  0
  2 26  1  0
  3 27  1  0
  4 28  1  0
  4 29  1  0
  4 30  1  0
  6 31  1  0
  6 32  1  0
  8 33  1  0
 11 34  1  0
 14 35  1  0
 15 36  1  0
 16 37  1  0
 16 38  1  0
 18 39  1  0
 18 40  1  0
 19 41  1  0
 21 42  1  0
M  END
$$$$
