
     RDKit          2D

104116  0  0  0  0  0  0  0  0999 V2000
   -6.4933   -2.2135    0.0000 C   0  0  0  0  0  0  0  0  0  0  0  0
   -4.9975   -2.1015    0.0000 C   0  0  0  0  0  0  0  0  0  0  0  0
   -4.3466   -0.7500    0.0000 C   0  0  0  0  0  0  0  0  0  0  0  0
   -4.3466    0.7500    0.0000 O   0  0  0  0  0  0  0  0  0  0  0  0
   -3.1739    1.6852    0.0000 C   0  0  0  0  0  0  0  0  0  0  0  0
   -1.7115    1.3515    0.0000 C   0  0  0  0  0  0  0  0  0  0  0  0
   -1.0607    0.0000    0.0000 C   0  0  0  0  0  0  0  0  0  0  0  0
   -0.0000   -1.0607    0.0000 C   0  0  0  0  0  0  0  0  0  0  0  0
    1.0607    0.0000    0.0000 O   0  0  0  0  0  0  0  0  0  0  0  0
    0.0000    1.0607    0.0000 C   0  0  0  0  0  0  0  0  0  0  0  0
   -1.0607    0.0000    0.0000 C   0  0  0  0  0  0  0  0  0  0  0  0
   -2.1213    1.0607    0.0000 C   0  0  0  0  0  0  0  0  0  0  0  0
   -3.1820    0.0000    0.0000 C   0  0  0  0  0  0  0  0  0  0  0  0
   -4.2426   -1.0607    0.0000 C   0  0  0  0  0  0  0  0  0  0  0  0
   -4.2426    1.0607    0.0000 C   0  0  0  0  0  0  0  0  0  0  0  0
   -5.3033    0.0000    0.0000 C   0  0  0  0  0  0  0  0  0  0  0  0
   -6.3640    1.0607    0.0000 C   0  0  0  0  0  0  0  0  0  0  0  0
   -5.3033    2.1213    0.0000 C   0  0  0  0  0  0  0  0  0  0  0  0
   -4.2426    3.1820    0.0000 C   0  0  0  0  0  0  0  0  0  0  0  0
   -3.1820    4.2426    0.0000 C   0  0  0  0  0  0  0  0  0  0  0  0
   -2.1213   -1.0607    0.0000 C   0  0  0  0  0  0  0  0  0  0  0  0
   -1.7115   -1.3515    0.0000 C   0  0  0  0  0  0  0  0  0  0  0  0
   -3.1739   -1.6852    0.0000 C   0  0  0  0  0  0  0  0  0  0  0  0
   -2.1536   -2.7848    0.0000 C   0  0  0  0  0  0  0  0  0  0  0  0
   -1.1334   -3.8844    0.0000 C   0  0  0  0  0  0  0  0  0  0  0  0
   -2.0391   -5.0801    0.0000 C   0  0  0  0  0  0  0  0  0  0  0  0
   -2.9448   -6.2758    0.0000 C   0  0  0  0  0  0  0  0  0  0  0  0
   -1.7491   -7.1815    0.0000 C   0  0  0  0  0  0  0  0  0  0  0  0
   -2.6548   -8.3772    0.0000 C   0  0  0  0  0  0  0  0  0  0  0  0
   -3.8505   -7.4715    0.0000 C   0  0  0  0  0  0  0  0  0  0  0  0
   -4.0370   -8.9598    0.0000 C   0  0  0  0  0  0  0  0  0  0  0  0
   -5.5351   -9.0346    0.0000 C   0  0  0  0  0  0  0  0  0  0  0  0
   -3.7032  -10.4222    0.0000 C   0  0  0  0  0  0  0  0  0  0  0  0
   -3.3694  -11.8846    0.0000 C   0  0  0  0  0  0  0  0  0  0  0  0
   -0.6912   -2.4510    0.0000 C   0  0  0  0  0  0  0  0  0  0  0  0
   -4.1525   -3.3408    0.0000 N   0  0  0  0  0  0  0  0  0  0  0  0
   -4.6585   -4.7529    0.0000 C   0  0  0  0  0  0  0  0  0  0  0  0
   -3.4719   -5.6705    0.0000 C   0  0  0  0  0  0  0  0  0  0  0  0
   -3.5167   -7.1698    0.0000 C   0  0  0  0  0  0  0  0  0  0  0  0
   -2.0174   -7.2147    0.0000 C   0  0  0  0  0  0  0  0  0  0  0  0
   -1.9725   -5.7154    0.0000 C   0  0  0  0  0  0  0  0  0  0  0  0
   -1.4665   -4.3033    0.0000 C   0  0  0  0  0  0  0  0  0  0  0  0
   -2.6531   -3.3857    0.0000 C   0  0  0  0  0  0  0  0  0  0  0  0
   -3.8925   -4.2307    0.0000 C   0  0  0  0  0  0  0  0  0  0  0  0
   -4.6033   -2.9098    0.0000 C   0  0  0  0  0  0  0  0  0  0  0  0
   -7.1441   -3.5650    0.0000 H   0  0  0  0  0  0  0  0  0  0  0  0
   -7.3382   -0.9742    0.0000 H   0  0  0  0  0  0  0  0  0  0  0  0
   -5.8315   -0.9626    0.0000 H   0  0  0  0  0  0  0  0  0  0  0  0
   -4.0855    2.8765    0.0000 H   0  0  0  0  0  0  0  0  0  0  0  0
   -2.5231    3.0367    0.0000 H   0  0  0  0  0  0  0  0  0  0  0  0
   -1.3485    2.8069    0.0000 H   0  0  0  0  0  0  0  0  0  0  0  0
   -0.3733    2.0292    0.0000 H   0  0  0  0  0  0  0  0  0  0  0  0
    0.7044   -2.3850    0.0000 H   0  0  0  0  0  0  0  0  0  0  0  0
    0.0000    2.5607    0.0000 H   0  0  0  0  0  0  0  0  0  0  0  0
   -3.4071    1.8331    0.0000 H   0  0  0  0  0  0  0  0  0  0  0  0
   -1.0607    2.1213    0.0000 H   0  0  0  0  0  0  0  0  0  0  0  0
   -5.1661   -2.2427    0.0000 H   0  0  0  0  0  0  0  0  0  0  0  0
   -5.6771   -0.6223    0.0000 H   0  0  0  0  0  0  0  0  0  0  0  0
   -3.3192   -2.2427    0.0000 H   0  0  0  0  0  0  0  0  0  0  0  0
   -5.3033    0.0000    0.0000 H   0  0  0  0  0  0  0  0  0  0  0  0
   -6.4853   -0.9235    0.0000 H   0  0  0  0  0  0  0  0  0  0  0  0
   -6.5891    0.7725    0.0000 H   0  0  0  0  0  0  0  0  0  0  0  0
   -7.4246    2.1213    0.0000 H   0  0  0  0  0  0  0  0  0  0  0  0
   -7.4246    0.0000    0.0000 H   0  0  0  0  0  0  0  0  0  0  0  0
   -6.3640    3.1820    0.0000 H   0  0  0  0  0  0  0  0  0  0  0  0
   -5.1661    4.3640    0.0000 H   0  0  0  0  0  0  0  0  0  0  0  0
   -5.4247    4.1054    0.0000 H   0  0  0  0  0  0  0  0  0  0  0  0
   -2.1213    5.3033    0.0000 H   0  0  0  0  0  0  0  0  0  0  0  0
   -4.2426    5.3033    0.0000 H   0  0  0  0  0  0  0  0  0  0  0  0
   -1.8962    3.4702    0.0000 H   0  0  0  0  0  0  0  0  0  0  0  0
   -1.3488   -2.3465    0.0000 H   0  0  0  0  0  0  0  0  0  0  0  0
   -3.0448   -2.2427    0.0000 H   0  0  0  0  0  0  0  0  0  0  0  0
   -4.1941   -2.7848    0.0000 H   0  0  0  0  0  0  0  0  0  0  0  0
    0.2749   -4.4009    0.0000 H   0  0  0  0  0  0  0  0  0  0  0  0
   -0.7419   -5.8333    0.0000 H   0  0  0  0  0  0  0  0  0  0  0  0
   -3.3363   -4.3269    0.0000 H   0  0  0  0  0  0  0  0  0  0  0  0
   -4.3241   -5.6863    0.0000 H   0  0  0  0  0  0  0  0  0  0  0  0
   -0.4519   -7.9347    0.0000 H   0  0  0  0  0  0  0  0  0  0  0  0
   -0.7044   -6.1051    0.0000 H   0  0  0  0  0  0  0  0  0  0  0  0
   -1.7342   -9.5615    0.0000 H   0  0  0  0  0  0  0  0  0  0  0  0
   -5.2984   -7.0797    0.0000 H   0  0  0  0  0  0  0  0  0  0  0  0
   -7.0333   -9.1094    0.0000 H   0  0  0  0  0  0  0  0  0  0  0  0
   -5.6435  -10.5307    0.0000 H   0  0  0  0  0  0  0  0  0  0  0  0
   -5.9702   -7.5991    0.0000 H   0  0  0  0  0  0  0  0  0  0  0  0
   -5.1140  -10.9318    0.0000 H   0  0  0  0  0  0  0  0  0  0  0  0
   -2.2110  -10.2692    0.0000 H   0  0  0  0  0  0  0  0  0  0  0  0
   -3.0357  -13.3470    0.0000 H   0  0  0  0  0  0  0  0  0  0  0  0
   -1.9070  -11.5508    0.0000 H   0  0  0  0  0  0  0  0  0  0  0  0
   -4.8318  -12.2184    0.0000 H   0  0  0  0  0  0  0  0  0  0  0  0
    0.8009   -2.2980    0.0000 H   0  0  0  0  0  0  0  0  0  0  0  0
   -6.0792   -4.2717    0.0000 H   0  0  0  0  0  0  0  0  0  0  0  0
   -5.5967   -5.9233    0.0000 H   0  0  0  0  0  0  0  0  0  0  0  0
   -3.1975   -8.6354    0.0000 H   0  0  0  0  0  0  0  0  0  0  0  0
   -4.9606   -6.7635    0.0000 H   0  0  0  0  0  0  0  0  0  0  0  0
   -0.5347   -7.4420    0.0000 H   0  0  0  0  0  0  0  0  0  0  0  0
   -2.2447   -8.6974    0.0000 H   0  0  0  0  0  0  0  0  0  0  0  0
   -3.4590   -5.5141    0.0000 H   0  0  0  0  0  0  0  0  0  0  0  0
   -0.2045   -5.1140    0.0000 H   0  0  0  0  0  0  0  0  0  0  0  0
   -0.2730   -3.3947    0.0000 H   0  0  0  0  0  0  0  0  0  0  0  0
   -1.7562   -2.1834    0.0000 H   0  0  0  0  0  0  0  0  0  0  0  0
   -5.3769   -4.4467    0.0000 H   0  0  0  0  0  0  0  0  0  0  0  0
   -5.7403   -1.9314    0.0000 H   0  0  0  0  0  0  0  0  0  0  0  0
   -6.0010   -3.4543    0.0000 H   0  0  0  0  0  0  0  0  0  0  0  0
   -3.1154   -2.7197    0.0000 H   0  0  0  0  0  0  0  0  0  0  0  0
  1  2  2  3
  2  3  1  0
  3  4  1  0
  4  5  1  0
  5  6  1  0
  6  7  1  0
  7  8  1  0
  8  9  1  0
  9 10  1  0
 10 11  1  0
 11 12  1  0
 12 13  1  0
 13 14  1  0
 13 15  1  0
 15 16  1  0
 16 17  1  0
 17 18  1  0
 18 19  1  0
 19 20  1  0
 13 21  1  0
  7 22  1  0
 22 23  1  0
 23 24  1  0
 24 25  1  0
 25 26  1  0
 26 27  1  0
 27 28  1  0
 28 29  1  0
 29 30  1  0
 30 31  1  0
 31 32  1  0
 31 33  1  0
 33 34  1  0
 25 35  1  0
  2 36  1  0
 36 37  1  0
 37 38  1  0
 38 39  1  0
 39 40  1  0
 40 41  1  0
 41 42  1  0
 42 43  1  0
 43 44  1  0
 44 45  1  0
 23  3  1  0
 35 24  1  0
 43 36  1  0
 10  7  1  0
 21 11  1  0
 24 22  1  0
 30 27  1  0
 41 38  1  0
 11  8  1  0
 18 15  1  0
 35 22  1  0
 44 38  1  0
 31 29  1  0
  1 46  1  0
  1 47  1  0
  3 48  1  0
  5 49  1  0
  5 50  1  0
  6 51  1  0
  6 52  1  0
  8 53  1  0
 10 54  1  0
 12 55  1  0
 12 56  1  0
 14 57  1  0
 14 58  1  0
 14 59  1  0
 15 60  1  0
 16 61  1  0
 16 62  1  0
 17 63  1  0
 17 64  1  0
 18 65  1  0
 19 66  1  0
 19 67  1  0
 20 68  1  0
 20 69  1  0
 20 70  1  0
 21 71  1  0
 21 72  1  0
 23 73  1  0
 25 74  1  0
 26 75  1  0
 26 76  1  0
 27 77  1  0
 28 78  1  0
 28 79  1  0
 29 80  1  0
 30 81  1  0
 32 82  1  0
 32 83  1  0
 32 84  1  0
 33 85  1  0
 33 86  1  0
 34 87  1  0
 34 88  1  0
 34 89  1  0
 35 90  1  0
 37 91  1  0
 37 92  1  0
 39 93  1  0
 39 94  1  0
 40 95  1  0
 40 96  1  0
 41 97  1  0
 42 98  1  0
 42 99  1  0
 43100  1  0
 44101  1  0
 45102  1  0
 45103  1  0
 45104  1  0
M  END
$$$$
