
     RDKit          2D

 52 53  0  0  0  0  0  0  0  0999 V2000
    5.6869    5.7453    0.0000 C   0  0  0  0  0  0  0  0  0  0  0  0
    4.7228    4.5963    0.0000 C   0  0  0  0  0  0  0  0  0  0  0  0
    3.7586    3.4472    0.0000 C   0  0  0  0  0  0  0  0  0  0  0  0
    2.7944    2.2981    0.0000 C   0  0  0  0  0  0  0  0  0  0  0  0
    1.8302    1.1491    0.0000 C   0  0  0  0  0  0  0  0  0  0  0  0
    0.6811    2.1132    0.0000 O   0  0  0  0  0  0  0  0  0  0  0  0
    0.8660    0.0000    0.0000 C   0  0  0  0  0  0  0  0  0  0  0  0
   -0.4330    0.7500    0.0000 C   0  0  0  0  0  0  0  0  0  0  0  0
   -0.4330   -0.7500    0.0000 C   0  0  0  0  0  0  0  0  0  0  0  0
   -1.9330   -0.7500    0.0000 C   0  0  0  0  0  0  0  0  0  0  0  0
   -2.6830   -2.0490    0.0000 C   0  0  0  0  0  0  0  0  0  0  0  0
   -1.9330   -3.3481    0.0000 C   0  0  0  0  0  0  0  0  0  0  0  0
   -1.6725   -4.8253    0.0000 O   0  0  0  0  0  0  0  0  0  0  0  0
   -2.8216   -5.7895    0.0000 C   0  0  0  0  0  0  0  0  0  0  0  0
   -0.4330   -3.3481    0.0000 O   0  0  0  0  0  0  0  0  0  0  0  0
    0.3170   -2.0490    0.0000 C   0  0  0  0  0  0  0  0  0  0  0  0
    1.4661   -1.0849    0.0000 C   0  0  0  0  0  0  0  0  0  0  0  0
    2.6151   -0.1207    0.0000 C   0  0  0  0  0  0  0  0  0  0  0  0
    4.0247   -0.6337    0.0000 N   0  0  0  0  0  0  0  0  0  0  0  0
    2.4302   -2.2339    0.0000 C   0  0  0  0  0  0  0  0  0  0  0  0
    3.3944   -3.3830    0.0000 C   0  0  0  0  0  0  0  0  0  0  0  0
    6.6511    6.8944    0.0000 H   0  0  0  0  0  0  0  0  0  0  0  0
    4.5379    6.7095    0.0000 H   0  0  0  0  0  0  0  0  0  0  0  0
    6.8360    4.7812    0.0000 H   0  0  0  0  0  0  0  0  0  0  0  0
    3.5737    5.5604    0.0000 H   0  0  0  0  0  0  0  0  0  0  0  0
    5.8718    3.6321    0.0000 H   0  0  0  0  0  0  0  0  0  0  0  0
    4.9076    2.4830    0.0000 H   0  0  0  0  0  0  0  0  0  0  0  0
    2.6095    4.4114    0.0000 H   0  0  0  0  0  0  0  0  0  0  0  0
    1.7714    3.3952    0.0000 H   0  0  0  0  0  0  0  0  0  0  0  0
    3.9435    1.3340    0.0000 H   0  0  0  0  0  0  0  0  0  0  0  0
    3.1784    0.4916    0.0000 H   0  0  0  0  0  0  0  0  0  0  0  0
    0.7596    3.6112    0.0000 H   0  0  0  0  0  0  0  0  0  0  0  0
    1.5110   -0.4685    0.0000 H   0  0  0  0  0  0  0  0  0  0  0  0
   -1.8675    1.1886    0.0000 H   0  0  0  0  0  0  0  0  0  0  0  0
   -0.2763    2.2418    0.0000 H   0  0  0  0  0  0  0  0  0  0  0  0
   -3.3426   -0.2370    0.0000 H   0  0  0  0  0  0  0  0  0  0  0  0
   -1.8545    0.7479    0.0000 H   0  0  0  0  0  0  0  0  0  0  0  0
   -3.8321   -3.0132    0.0000 H   0  0  0  0  0  0  0  0  0  0  0  0
   -3.8321   -1.0849    0.0000 H   0  0  0  0  0  0  0  0  0  0  0  0
   -3.3946   -3.6855    0.0000 H   0  0  0  0  0  0  0  0  0  0  0  0
   -3.9707   -6.7537    0.0000 H   0  0  0  0  0  0  0  0  0  0  0  0
   -1.8574   -6.9385    0.0000 H   0  0  0  0  0  0  0  0  0  0  0  0
   -3.9187   -4.7665    0.0000 H   0  0  0  0  0  0  0  0  0  0  0  0
    1.3400   -3.1461    0.0000 H   0  0  0  0  0  0  0  0  0  0  0  0
    0.8086    0.2634    0.0000 H   0  0  0  0  0  0  0  0  0  0  0  0
    2.7198    1.3757    0.0000 H   0  0  0  0  0  0  0  0  0  0  0  0
    5.1737    0.3305    0.0000 H   0  0  0  0  0  0  0  0  0  0  0  0
    3.7785   -1.5764    0.0000 H   0  0  0  0  0  0  0  0  0  0  0  0
    1.4073   -3.3310    0.0000 H   0  0  0  0  0  0  0  0  0  0  0  0
    4.3586   -4.5321    0.0000 H   0  0  0  0  0  0  0  0  0  0  0  0
    2.2454   -4.3472    0.0000 H   0  0  0  0  0  0  0  0  0  0  0  0
    4.5435   -2.4188    0.0000 H   0  0  0  0  0  0  0  0  0  0  0  0
  1  2  1  0
  2  3  1  0
  3  4  1  0
  4  5  1  0
  5  6  1  0
  5  7  1  0
  7  8  1  0
  8  9  1  0
  9 10  1  0
 10 11  1  0
 11 12  1  0
 12 13  1  0
 13 14  1  0
 12 15  1  0
 15 16  1  0
 16 17  1  0
 17 18  1  0
 18 19  2  3
 17 20  1  0
 20 21  1  0
  9  7  1  0
 16  9  1  0
  1 22  1  0
  1 23  1  0
  1 24  1  0
  2 25  1  0
  2 26  1  0
  3 27  1  0
  3 28  1  0
  4 29  1  0
  4 30  1  0
  5 31  1  0
  6 32  1  0
  7 33  1  0
  8 34  1  0
  8 35  1  0
 10 36  1  0
 10 37  1  0
 11 38  1  0
 11 39  1  0
 12 40  1  0
 14 41  1  0
 14 42  1  0
 14 43  1  0
 16 44  1  0
 17 45  1  0
 18 46  1  0
 19 47  1  0
 20 48  1  0
 20 49  1  0
 21 50  1  0
 21 51  1  0
 21 52  1  0
M  END
$$$$
