
     RDKit          2D

 62 64  0  0  0  0  0  0  0  0999 V2000
    2.8612   -4.8481    0.0000 C   0  0  0  0  0  0  0  0  0  0  0  0
    1.5622   -5.5981    0.0000 C   0  0  0  0  0  0  0  0  0  0  0  0
    0.2631   -4.8481    0.0000 C   0  0  0  0  0  0  0  0  0  0  0  0
   -1.0359   -4.0981    0.0000 C   0  0  0  0  0  0  0  0  0  0  0  0
   -2.3349   -3.3481    0.0000 N   0  0  0  0  0  0  0  0  0  0  0  0
   -3.6340   -4.0981    0.0000 N   0  0  0  0  0  0  0  0  0  0  0  0
   -4.9330   -3.3481    0.0000 C   0  0  0  0  0  0  0  0  0  0  0  0
   -4.1830   -2.0490    0.0000 C   0  0  0  0  0  0  0  0  0  0  0  0
   -3.4330   -0.7500    0.0000 N   0  0  0  0  0  0  0  0  0  0  0  0
   -4.1830    0.5490    0.0000 C   0  0  0  0  0  0  0  0  0  0  0  0
   -2.8840    1.2990    0.0000 N   0  0  0  0  0  0  0  0  0  0  0  0
   -3.6340    2.5981    0.0000 C   0  0  0  0  0  0  0  0  0  0  0  0
   -4.9330    3.3481    0.0000 C   0  0  0  0  0  0  0  0  0  0  0  0
   -4.9330    1.8481    0.0000 C   0  0  0  0  0  0  0  0  0  0  0  0
   -5.6830   -4.6471    0.0000 N   0  0  0  0  0  0  0  0  0  0  0  0
   -7.1830   -4.6471    0.0000 C   0  0  0  0  0  0  0  0  0  0  0  0
   -7.9330   -5.9462    0.0000 C   0  0  0  0  0  0  0  0  0  0  0  0
   -9.4330   -5.9462    0.0000 C   0  0  0  0  0  0  0  0  0  0  0  0
   -7.1830   -7.2452    0.0000 C   0  0  0  0  0  0  0  0  0  0  0  0
   -6.4330   -8.5442    0.0000 C   0  0  0  0  0  0  0  0  0  0  0  0
   -7.0191   -9.9250    0.0000 O   0  0  0  0  0  0  0  0  0  0  0  0
   -8.4821   -7.9952    0.0000 C   0  0  0  0  0  0  0  0  0  0  0  0
   -9.7811   -8.7452    0.0000 C   0  0  0  0  0  0  0  0  0  0  0  0
  -11.0801   -9.4952    0.0000 C   0  0  0  0  0  0  0  0  0  0  0  0
    1.0131   -3.5490    0.0000 C   0  0  0  0  0  0  0  0  0  0  0  0
    2.1622   -2.5849    0.0000 C   0  0  0  0  0  0  0  0  0  0  0  0
    2.4227   -4.0621    0.0000 C   0  0  0  0  0  0  0  0  0  0  0  0
    4.1603   -5.5981    0.0000 H   0  0  0  0  0  0  0  0  0  0  0  0
    2.8612   -3.3481    0.0000 H   0  0  0  0  0  0  0  0  0  0  0  0
    1.5622   -7.0981    0.0000 H   0  0  0  0  0  0  0  0  0  0  0  0
   -0.4869   -6.1471    0.0000 H   0  0  0  0  0  0  0  0  0  0  0  0
   -1.7859   -5.3971    0.0000 H   0  0  0  0  0  0  0  0  0  0  0  0
   -0.4498   -2.7173    0.0000 H   0  0  0  0  0  0  0  0  0  0  0  0
   -2.3349   -2.5509    0.0000 H   0  0  0  0  0  0  0  0  0  0  0  0
   -3.6340   -5.5981    0.0000 H   0  0  0  0  0  0  0  0  0  0  0  0
   -6.2321   -2.5981    0.0000 H   0  0  0  0  0  0  0  0  0  0  0  0
   -5.4821   -1.2990    0.0000 H   0  0  0  0  0  0  0  0  0  0  0  0
   -3.3316   -2.2931    0.0000 H   0  0  0  0  0  0  0  0  0  0  0  0
   -1.9330   -0.7500    0.0000 H   0  0  0  0  0  0  0  0  0  0  0  0
   -5.4821   -0.2010    0.0000 H   0  0  0  0  0  0  0  0  0  0  0  0
   -1.4351    0.9108    0.0000 H   0  0  0  0  0  0  0  0  0  0  0  0
   -2.5733    3.6587    0.0000 H   0  0  0  0  0  0  0  0  0  0  0  0
   -4.4200    4.7576    0.0000 H   0  0  0  0  0  0  0  0  0  0  0  0
   -6.4102    3.6085    0.0000 H   0  0  0  0  0  0  0  0  0  0  0  0
   -6.3819    1.4598    0.0000 H   0  0  0  0  0  0  0  0  0  0  0  0
   -7.9330   -3.3481    0.0000 H   0  0  0  0  0  0  0  0  0  0  0  0
  -10.3358   -7.1441    0.0000 H   0  0  0  0  0  0  0  0  0  0  0  0
  -10.1830   -4.6471    0.0000 H   0  0  0  0  0  0  0  0  0  0  0  0
   -5.8840   -6.4952    0.0000 H   0  0  0  0  0  0  0  0  0  0  0  0
   -4.9330   -8.5442    0.0000 H   0  0  0  0  0  0  0  0  0  0  0  0
   -7.8960   -9.3760    0.0000 H   0  0  0  0  0  0  0  0  0  0  0  0
   -9.5241   -6.9162    0.0000 H   0  0  0  0  0  0  0  0  0  0  0  0
   -9.0311  -10.0442    0.0000 H   0  0  0  0  0  0  0  0  0  0  0  0
  -10.6838   -7.5473    0.0000 H   0  0  0  0  0  0  0  0  0  0  0  0
  -12.3792  -10.2452    0.0000 H   0  0  0  0  0  0  0  0  0  0  0  0
  -11.8301   -8.1962    0.0000 H   0  0  0  0  0  0  0  0  0  0  0  0
  -10.3301  -10.7942    0.0000 H   0  0  0  0  0  0  0  0  0  0  0  0
   -0.0098   -2.4520    0.0000 H   0  0  0  0  0  0  0  0  0  0  0  0
    1.4122   -1.2858    0.0000 H   0  0  0  0  0  0  0  0  0  0  0  0
    3.5717   -2.0718    0.0000 H   0  0  0  0  0  0  0  0  0  0  0  0
    3.9227   -4.0621    0.0000 H   0  0  0  0  0  0  0  0  0  0  0  0
    2.5274   -5.5584    0.0000 H   0  0  0  0  0  0  0  0  0  0  0  0
  1  2  2  3
  2  3  1  0
  3  4  1  0
  4  5  1  0
  5  6  1  0
  6  7  1  0
  7  8  1  0
  8  9  1  0
  9 10  1  0
 10 11  1  0
 11 12  1  0
 12 13  1  0
 13 14  1  0
  7 15  1  0
 15 16  2  3
 16 17  1  0
 17 18  2  3
 17 19  1  0
 19 20  1  0
 20 21  2  0
 19 22  1  0
 22 23  1  0
 23 24  1  0
  3 25  1  0
 25 26  1  0
 26 27  1  0
 14 10  1  0
 27 25  1  0
 14 12  1  0
  1 28  1  0
  1 29  1  0
  2 30  1  0
  3 31  1  6
  4 32  1  0
  4 33  1  0
  5 34  1  0
  6 35  1  0
  7 36  1  1
  8 37  1  0
  8 38  1  0
  9 39  1  0
 10 40  1  1
 11 41  1  0
 12 42  1  1
 13 43  1  0
 13 44  1  0
 14 45  1  1
 16 46  1  0
 18 47  1  0
 18 48  1  0
 19 49  1  6
 20 50  1  0
 22 51  1  0
 22 52  1  0
 23 53  1  0
 23 54  1  0
 24 55  1  0
 24 56  1  0
 24 57  1  0
 25 58  1  0
 26 59  1  0
 26 60  1  0
 27 61  1  0
 27 62  1  0
M  END
$$$$
