
     RDKit          2D

 27 26  0  0  0  0  0  0  0  0999 V2000
    0.0000    0.0000    0.0000 C   0  0  0  0  0  0  0  0  0  0  0  0
    1.2990    0.7500    0.0000 C   0  0  0  0  0  0  0  0  0  0  0  0
    2.5981   -0.0000    0.0000 C   0  0  0  0  0  0  0  0  0  0  0  0
    1.2990    2.2500    0.0000 C   0  0  0  0  0  0  0  0  0  0  0  0
    1.2990    3.7500    0.0000 O   0  0  0  0  0  0  0  0  0  0  0  0
    0.0000    4.5000    0.0000 C   0  0  0  0  0  0  0  0  0  0  0  0
   -1.2990    5.2500    0.0000 N   0  0  0  0  0  0  0  0  0  0  0  0
   -2.5981    4.5000    0.0000 C   0  0  0  0  0  0  0  0  0  0  0  0
   -3.8971    3.7500    0.0000 C   0  0  0  0  0  0  0  0  0  0  0  0
   -5.1962    3.0000    0.0000 C   0  0  0  0  0  0  0  0  0  0  0  0
   -6.4952    3.7500    0.0000 O   0  0  0  0  0  0  0  0  0  0  0  0
   -5.1962    1.5000    0.0000 O   0  0  0  0  0  0  0  0  0  0  0  0
   -1.2990    0.7500    0.0000 H   0  0  0  0  0  0  0  0  0  0  0  0
   -0.0000   -1.5000    0.0000 H   0  0  0  0  0  0  0  0  0  0  0  0
    3.8971   -0.7500    0.0000 H   0  0  0  0  0  0  0  0  0  0  0  0
    3.3481    1.2990    0.0000 H   0  0  0  0  0  0  0  0  0  0  0  0
    1.8481   -1.2990    0.0000 H   0  0  0  0  0  0  0  0  0  0  0  0
    2.7990    2.2500    0.0000 H   0  0  0  0  0  0  0  0  0  0  0  0
   -0.2010    2.2500    0.0000 H   0  0  0  0  0  0  0  0  0  0  0  0
   -0.7500    3.2010    0.0000 H   0  0  0  0  0  0  0  0  0  0  0  0
    0.7500    5.7990    0.0000 H   0  0  0  0  0  0  0  0  0  0  0  0
   -1.2990    6.7500    0.0000 H   0  0  0  0  0  0  0  0  0  0  0  0
   -1.8481    3.2010    0.0000 H   0  0  0  0  0  0  0  0  0  0  0  0
   -3.3481    5.7990    0.0000 H   0  0  0  0  0  0  0  0  0  0  0  0
   -4.6471    5.0490    0.0000 H   0  0  0  0  0  0  0  0  0  0  0  0
   -3.1471    2.4510    0.0000 H   0  0  0  0  0  0  0  0  0  0  0  0
   -6.4952    0.7500    0.0000 H   0  0  0  0  0  0  0  0  0  0  0  0
  1  2  2  3
  2  3  1  0
  2  4  1  0
  4  5  1  0
  5  6  1  0
  6  7  1  0
  7  8  1  0
  8  9  1  0
  9 10  1  0
 10 11  2  0
 10 12  1  0
  1 13  1  0
  1 14  1  0
  3 15  1  0
  3 16  1  0
  3 17  1  0
  4 18  1  0
  4 19  1  0
  6 20  1  0
  6 21  1  0
  7 22  1  0
  8 23  1  0
  8 24  1  0
  9 25  1  0
  9 26  1  0
 12 27  1  0
M  END
$$$$
