
     RDKit          2D

100106  0  0  0  0  0  0  0  0999 V2000
    3.6423    2.5105    0.0000 C   0  0  0  0  0  0  0  0  0  0  0  0
    2.3432    3.2605    0.0000 C   0  0  0  0  0  0  0  0  0  0  0  0
    1.0442    2.5105    0.0000 C   0  0  0  0  0  0  0  0  0  0  0  0
    0.0800    3.6595    0.0000 C   0  0  0  0  0  0  0  0  0  0  0  0
   -0.4330    2.2500    0.0000 C   0  0  0  0  0  0  0  0  0  0  0  0
   -0.4330    0.7500    0.0000 C   0  0  0  0  0  0  0  0  0  0  0  0
    0.8660    0.0000    0.0000 C   0  0  0  0  0  0  0  0  0  0  0  0
    1.6136    1.3858    0.0000 C   0  0  0  0  0  0  0  0  0  0  0  0
    2.8036    2.2990    0.0000 C   0  0  0  0  0  0  0  0  0  0  0  0
    3.9937    3.2121    0.0000 C   0  0  0  0  0  0  0  0  0  0  0  0
    3.7168    1.1089    0.0000 O   0  0  0  0  0  0  0  0  0  0  0  0
    1.0396    2.7716    0.0000 C   0  0  0  0  0  0  0  0  0  0  0  0
    1.3515    4.2389    0.0000 O   0  0  0  0  0  0  0  0  0  0  0  0
    0.0524    4.9889    0.0000 C   0  0  0  0  0  0  0  0  0  0  0  0
   -1.5363    4.2588    0.0000 C   0  0  0  0  0  0  0  0  0  0  0  0
   -1.7321    2.7716    0.0000 C   0  0  0  0  0  0  0  0  0  0  0  0
   -2.3061    1.3858    0.0000 C   0  0  0  0  0  0  0  0  0  0  0  0
   -1.7321    0.0000    0.0000 C   0  0  0  0  0  0  0  0  0  0  0  0
   -3.2321    0.0000    0.0000 C   0  0  0  0  0  0  0  0  0  0  0  0
   -2.9716   -1.4772    0.0000 C   0  0  0  0  0  0  0  0  0  0  0  0
   -4.1206   -2.4414    0.0000 C   0  0  0  0  0  0  0  0  0  0  0  0
   -5.5302   -1.9284    0.0000 C   0  0  0  0  0  0  0  0  0  0  0  0
   -5.7907   -0.4512    0.0000 C   0  0  0  0  0  0  0  0  0  0  0  0
   -6.5407    0.8479    0.0000 C   0  0  0  0  0  0  0  0  0  0  0  0
   -7.2907    2.1469    0.0000 C   0  0  0  0  0  0  0  0  0  0  0  0
   -8.0407    3.4460    0.0000 C   0  0  0  0  0  0  0  0  0  0  0  0
   -8.7907    4.7450    0.0000 C   0  0  0  0  0  0  0  0  0  0  0  0
   -7.8397    0.0979    0.0000 C   0  0  0  0  0  0  0  0  0  0  0  0
   -9.1387   -0.6521    0.0000 C   0  0  0  0  0  0  0  0  0  0  0  0
  -10.4378   -1.4021    0.0000 C   0  0  0  0  0  0  0  0  0  0  0  0
   -9.6878   -2.7012    0.0000 O   0  0  0  0  0  0  0  0  0  0  0  0
  -11.7368   -2.1521    0.0000 C   0  0  0  0  0  0  0  0  0  0  0  0
  -13.0358   -2.9021    0.0000 C   0  0  0  0  0  0  0  0  0  0  0  0
  -14.3349   -3.6521    0.0000 C   0  0  0  0  0  0  0  0  0  0  0  0
  -14.5177   -5.1409    0.0000 O   0  0  0  0  0  0  0  0  0  0  0  0
  -12.2858   -4.2012    0.0000 C   0  0  0  0  0  0  0  0  0  0  0  0
  -11.5358   -5.5002    0.0000 C   0  0  0  0  0  0  0  0  0  0  0  0
  -12.8349   -6.2502    0.0000 O   0  0  0  0  0  0  0  0  0  0  0  0
  -10.7858   -6.7992    0.0000 N   0  0  0  0  0  0  0  0  0  0  0  0
  -11.5358   -8.0983    0.0000 C   0  0  0  0  0  0  0  0  0  0  0  0
   -4.6416    0.5130    0.0000 O   0  0  0  0  0  0  0  0  0  0  0  0
   -0.4330   -0.7500    0.0000 C   0  0  0  0  0  0  0  0  0  0  0  0
   -0.3462    3.3457    0.0000 C   0  0  0  0  0  0  0  0  0  0  0  0
    5.0230    3.0965    0.0000 H   0  0  0  0  0  0  0  0  0  0  0  0
    4.0052    1.0550    0.0000 H   0  0  0  0  0  0  0  0  0  0  0  0
    2.1604    4.7493    0.0000 H   0  0  0  0  0  0  0  0  0  0  0  0
    1.8831    1.2670    0.0000 H   0  0  0  0  0  0  0  0  0  0  0  0
   -0.9989    4.7016    0.0000 H   0  0  0  0  0  0  0  0  0  0  0  0
    0.7375    5.0078    0.0000 H   0  0  0  0  0  0  0  0  0  0  0  0
   -1.8675    2.6886    0.0000 H   0  0  0  0  0  0  0  0  0  0  0  0
    2.3548   -0.1828    0.0000 H   0  0  0  0  0  0  0  0  0  0  0  0
    2.9061    0.6245    0.0000 H   0  0  0  0  0  0  0  0  0  0  0  0
    2.3777    3.7372    0.0000 H   0  0  0  0  0  0  0  0  0  0  0  0
    5.0635    4.2635    0.0000 H   0  0  0  0  0  0  0  0  0  0  0  0
    5.0451    2.1423    0.0000 H   0  0  0  0  0  0  0  0  0  0  0  0
    3.2324    4.5046    0.0000 H   0  0  0  0  0  0  0  0  0  0  0  0
    5.2167    1.1220    0.0000 H   0  0  0  0  0  0  0  0  0  0  0  0
    1.2999    4.2489    0.0000 H   0  0  0  0  0  0  0  0  0  0  0  0
    0.9341    6.2024    0.0000 H   0  0  0  0  0  0  0  0  0  0  0  0
   -1.0623    5.9926    0.0000 H   0  0  0  0  0  0  0  0  0  0  0  0
   -2.1103    5.6446    0.0000 H   0  0  0  0  0  0  0  0  0  0  0  0
   -3.1809    3.1599    0.0000 H   0  0  0  0  0  0  0  0  0  0  0  0
   -3.6817    0.7878    0.0000 H   0  0  0  0  0  0  0  0  0  0  0  0
   -3.4961    2.2990    0.0000 H   0  0  0  0  0  0  0  0  0  0  0  0
   -3.3368    1.4963    0.0000 H   0  0  0  0  0  0  0  0  0  0  0  0
   -2.2216   -2.7762    0.0000 H   0  0  0  0  0  0  0  0  0  0  0  0
   -1.5620   -0.9642    0.0000 H   0  0  0  0  0  0  0  0  0  0  0  0
   -4.8706   -3.7404    0.0000 H   0  0  0  0  0  0  0  0  0  0  0  0
   -2.9716   -3.4056    0.0000 H   0  0  0  0  0  0  0  0  0  0  0  0
   -7.0190   -2.1112    0.0000 H   0  0  0  0  0  0  0  0  0  0  0  0
   -5.7907   -3.4056    0.0000 H   0  0  0  0  0  0  0  0  0  0  0  0
   -7.1271   -1.1322    0.0000 H   0  0  0  0  0  0  0  0  0  0  0  0
   -5.2416    1.5979    0.0000 H   0  0  0  0  0  0  0  0  0  0  0  0
   -5.9916    2.8969    0.0000 H   0  0  0  0  0  0  0  0  0  0  0  0
   -8.6714    1.5609    0.0000 H   0  0  0  0  0  0  0  0  0  0  0  0
   -9.3397    2.6960    0.0000 H   0  0  0  0  0  0  0  0  0  0  0  0
   -6.7416    4.1960    0.0000 H   0  0  0  0  0  0  0  0  0  0  0  0
   -9.5407    6.0440    0.0000 H   0  0  0  0  0  0  0  0  0  0  0  0
   -7.4916    5.4950    0.0000 H   0  0  0  0  0  0  0  0  0  0  0  0
  -10.0897    3.9950    0.0000 H   0  0  0  0  0  0  0  0  0  0  0  0
   -8.7424    1.2958    0.0000 H   0  0  0  0  0  0  0  0  0  0  0  0
   -7.4263   -1.3440    0.0000 H   0  0  0  0  0  0  0  0  0  0  0  0
   -9.8887    0.6469    0.0000 H   0  0  0  0  0  0  0  0  0  0  0  0
   -8.3887   -1.9512    0.0000 H   0  0  0  0  0  0  0  0  0  0  0  0
  -11.1878   -0.1031    0.0000 H   0  0  0  0  0  0  0  0  0  0  0  0
  -10.2738   -4.0819    0.0000 H   0  0  0  0  0  0  0  0  0  0  0  0
  -12.4868   -0.8531    0.0000 H   0  0  0  0  0  0  0  0  0  0  0  0
  -10.9868   -3.4512    0.0000 H   0  0  0  0  0  0  0  0  0  0  0  0
  -13.7858   -1.6031    0.0000 H   0  0  0  0  0  0  0  0  0  0  0  0
  -15.6339   -2.9021    0.0000 H   0  0  0  0  0  0  0  0  0  0  0  0
  -13.4838   -5.1039    0.0000 H   0  0  0  0  0  0  0  0  0  0  0  0
  -10.9868   -3.4512    0.0000 H   0  0  0  0  0  0  0  0  0  0  0  0
  -10.1551   -4.9141    0.0000 H   0  0  0  0  0  0  0  0  0  0  0  0
  -13.0177   -7.7390    0.0000 H   0  0  0  0  0  0  0  0  0  0  0  0
   -9.2858   -6.7992    0.0000 H   0  0  0  0  0  0  0  0  0  0  0  0
  -12.2858   -9.3973    0.0000 H   0  0  0  0  0  0  0  0  0  0  0  0
  -10.2368   -8.8483    0.0000 H   0  0  0  0  0  0  0  0  0  0  0  0
  -12.9166   -7.5122    0.0000 H   0  0  0  0  0  0  0  0  0  0  0  0
   -0.4330   -2.2500    0.0000 H   0  0  0  0  0  0  0  0  0  0  0  0
   -1.2697    2.1636    0.0000 H   0  0  0  0  0  0  0  0  0  0  0  0
  1  2  2  3
  2  3  1  0
  3  4  1  0
  4  5  1  0
  5  6  1  0
  6  7  1  0
  7  8  1  0
  8  9  1  0
  9 10  1  0
  9 11  1  0
  8 12  1  0
 12 13  1  0
 13 14  1  0
 14 15  1  0
 15 16  1  0
 16 17  1  0
 17 18  1  0
 18 19  1  0
 19 20  1  0
 20 21  1  0
 21 22  1  0
 22 23  1  0
 23 24  1  0
 24 25  1  0
 25 26  1  0
 26 27  1  0
 24 28  1  0
 28 29  1  0
 29 30  1  0
 30 31  1  0
 30 32  1  0
 32 33  1  0
 33 34  1  0
 34 35  2  0
 33 36  1  0
 36 37  1  0
 37 38  1  0
 37 39  1  0
 39 40  1  0
 23 41  1  0
 18 42  1  0
 16 43  1  0
  5  3  1  0
 18  6  1  0
 41 19  1  0
 42  6  1  0
 42  7  1  0
 43 12  1  0
 43 15  1  0
  1 44  1  0
  1 45  1  0
  2 46  1  0
  3 47  1  0
  4 48  1  0
  4 49  1  0
  5 50  1  0
  7 51  1  0
  8 52  1  0
  9 53  1  0
 10 54  1  0
 10 55  1  0
 10 56  1  0
 11 57  1  0
 12 58  1  0
 14 59  1  0
 14 60  1  0
 15 61  1  0
 16 62  1  0
 17 63  1  0
 17 64  1  0
 19 65  1  0
 20 66  1  0
 20 67  1  0
 21 68  1  0
 21 69  1  0
 22 70  1  0
 22 71  1  0
 23 72  1  0
 24 73  1  0
 25 74  1  0
 25 75  1  0
 26 76  1  0
 26 77  1  0
 27 78  1  0
 27 79  1  0
 27 80  1  0
 28 81  1  0
 28 82  1  0
 29 83  1  0
 29 84  1  0
 30 85  1  0
 31 86  1  0
 32 87  1  0
 32 88  1  0
 33 89  1  0
 34 90  1  0
 36 91  1  0
 36 92  1  0
 37 93  1  0
 38 94  1  0
 39 95  1  0
 40 96  1  0
 40 97  1  0
 40 98  1  0
 42 99  1  0
 43100  1  0
M  END
$$$$
