
     RDKit          2D

 60 63  0  0  0  0  0  0  0  0999 V2000
   -3.0337   -2.7029    0.0000 C   0  0  0  0  0  0  0  0  0  0  0  0
   -2.3829   -1.3515    0.0000 C   0  0  0  0  0  0  0  0  0  0  0  0
   -1.7321    0.0000    0.0000 C   0  0  0  0  0  0  0  0  0  0  0  0
   -3.1284    0.5480    0.0000 C   0  0  0  0  0  0  0  0  0  0  0  0
   -3.5705    1.9814    0.0000 C   0  0  0  0  0  0  0  0  0  0  0  0
   -4.8695    1.2314    0.0000 C   0  0  0  0  0  0  0  0  0  0  0  0
   -6.1686    0.4814    0.0000 C   0  0  0  0  0  0  0  0  0  0  0  0
   -5.6195    2.5304    0.0000 C   0  0  0  0  0  0  0  0  0  0  0  0
   -6.3695    3.8294    0.0000 N   0  0  0  0  0  0  0  0  0  0  0  0
   -7.8695    3.8294    0.0000 C   0  0  0  0  0  0  0  0  0  0  0  0
   -7.8695    2.3294    0.0000 C   0  0  0  0  0  0  0  0  0  0  0  0
   -7.8695    5.3294    0.0000 C   0  0  0  0  0  0  0  0  0  0  0  0
   -7.8695    6.8294    0.0000 C   0  0  0  0  0  0  0  0  0  0  0  0
   -7.8695    8.3294    0.0000 C   0  0  0  0  0  0  0  0  0  0  0  0
   -6.3695    6.8294    0.0000 C   0  0  0  0  0  0  0  0  0  0  0  0
   -4.9600    7.3425    0.0000 C   0  0  0  0  0  0  0  0  0  0  0  0
   -6.1091    8.3067    0.0000 C   0  0  0  0  0  0  0  0  0  0  0  0
   -2.7255    3.2207    0.0000 C   0  0  0  0  0  0  0  0  0  0  0  0
   -1.2297    3.3328    0.0000 C   0  0  0  0  0  0  0  0  0  0  0  0
   -0.2094    2.2332    0.0000 C   0  0  0  0  0  0  0  0  0  0  0  0
   -0.4330    0.7500    0.0000 C   0  0  0  0  0  0  0  0  0  0  0  0
    0.8660    0.0000    0.0000 C   0  0  0  0  0  0  0  0  0  0  0  0
   -0.4330   -0.7500    0.0000 C   0  0  0  0  0  0  0  0  0  0  0  0
   -0.2685   -2.0899    0.0000 F   0  0  0  0  0  0  0  0  0  0  0  0
   -3.6845   -4.0544    0.0000 H   0  0  0  0  0  0  0  0  0  0  0  0
   -1.6822   -3.3537    0.0000 H   0  0  0  0  0  0  0  0  0  0  0  0
   -4.3852   -2.0521    0.0000 H   0  0  0  0  0  0  0  0  0  0  0  0
   -1.2470   -2.0811    0.0000 H   0  0  0  0  0  0  0  0  0  0  0  0
   -3.1634   -1.1896    0.0000 H   0  0  0  0  0  0  0  0  0  0  0  0
   -3.3424   -0.2199    0.0000 H   0  0  0  0  0  0  0  0  0  0  0  0
   -4.5993    0.2544    0.0000 H   0  0  0  0  0  0  0  0  0  0  0  0
   -4.4491    3.1971    0.0000 H   0  0  0  0  0  0  0  0  0  0  0  0
   -4.4562   -0.2105    0.0000 H   0  0  0  0  0  0  0  0  0  0  0  0
   -7.4676   -0.2686    0.0000 H   0  0  0  0  0  0  0  0  0  0  0  0
   -6.9186    1.7804    0.0000 H   0  0  0  0  0  0  0  0  0  0  0  0
   -5.4186   -0.8177    0.0000 H   0  0  0  0  0  0  0  0  0  0  0  0
   -6.9186    1.7804    0.0000 H   0  0  0  0  0  0  0  0  0  0  0  0
   -4.4216    3.4332    0.0000 H   0  0  0  0  0  0  0  0  0  0  0  0
   -5.3275    4.9084    0.0000 H   0  0  0  0  0  0  0  0  0  0  0  0
   -9.3695    3.8294    0.0000 H   0  0  0  0  0  0  0  0  0  0  0  0
   -7.8695    0.8294    0.0000 H   0  0  0  0  0  0  0  0  0  0  0  0
   -9.3695    2.3294    0.0000 H   0  0  0  0  0  0  0  0  0  0  0  0
   -6.4141    1.9665    0.0000 H   0  0  0  0  0  0  0  0  0  0  0  0
   -9.3695    5.3294    0.0000 H   0  0  0  0  0  0  0  0  0  0  0  0
   -6.3695    5.3294    0.0000 H   0  0  0  0  0  0  0  0  0  0  0  0
   -9.3695    6.8294    0.0000 H   0  0  0  0  0  0  0  0  0  0  0  0
   -7.8695    9.8294    0.0000 H   0  0  0  0  0  0  0  0  0  0  0  0
   -9.3695    8.3294    0.0000 H   0  0  0  0  0  0  0  0  0  0  0  0
   -6.4141    8.6924    0.0000 H   0  0  0  0  0  0  0  0  0  0  0  0
   -5.7594    5.4592    0.0000 H   0  0  0  0  0  0  0  0  0  0  0  0
   -4.2100    6.0434    0.0000 H   0  0  0  0  0  0  0  0  0  0  0  0
   -3.8109    8.3067    0.0000 H   0  0  0  0  0  0  0  0  0  0  0  0
   -5.3591    9.6057    0.0000 H   0  0  0  0  0  0  0  0  0  0  0  0
   -7.3526    9.1455    0.0000 H   0  0  0  0  0  0  0  0  0  0  0  0
   -3.4755    4.5198    0.0000 H   0  0  0  0  0  0  0  0  0  0  0  0
   -0.6817    4.7291    0.0000 H   0  0  0  0  0  0  0  0  0  0  0  0
    0.6355    3.4726    0.0000 H   0  0  0  0  0  0  0  0  0  0  0  0
    1.2432    1.8595    0.0000 H   0  0  0  0  0  0  0  0  0  0  0  0
    1.9631    1.0230    0.0000 H   0  0  0  0  0  0  0  0  0  0  0  0
    1.8302   -1.1491    0.0000 H   0  0  0  0  0  0  0  0  0  0  0  0
  1  2  1  0
  2  3  1  0
  3  4  1  0
  4  5  1  0
  5  6  1  0
  6  7  1  0
  6  8  1  0
  8  9  1  0
  9 10  1  0
 10 11  1  0
 10 12  1  0
 12 13  1  0
 13 14  1  0
 13 15  1  0
 15 16  1  0
 16 17  1  0
  5 18  1  0
 18 19  2  0
 19 20  1  0
 20 21  1  0
 21 22  1  0
 22 23  1  0
 23 24  1  0
 21  3  1  0
 23  3  1  0
 17 15  1  0
 23 21  1  0
  1 25  1  0
  1 26  1  0
  1 27  1  0
  2 28  1  0
  2 29  1  0
  4 30  1  0
  4 31  1  0
  5 32  1  0
  6 33  1  0
  7 34  1  0
  7 35  1  0
  7 36  1  0
  8 37  1  0
  8 38  1  0
  9 39  1  0
 10 40  1  0
 11 41  1  0
 11 42  1  0
 11 43  1  0
 12 44  1  0
 12 45  1  0
 13 46  1  0
 14 47  1  0
 14 48  1  0
 14 49  1  0
 15 50  1  0
 16 51  1  0
 16 52  1  0
 17 53  1  0
 17 54  1  0
 18 55  1  0
 19 56  1  0
 20 57  1  0
 20 58  1  0
 22 59  1  0
 22 60  1  0
M  END
$$$$
