
     RDKit          2D

104117  0  0  0  0  0  0  0  0999 V2000
   -5.0462  -10.0323    0.0000 C   0  0  0  0  0  0  0  0  0  0  0  0
   -4.0089   -8.9488    0.0000 C   0  0  0  0  0  0  0  0  0  0  0  0
   -2.5093   -8.9160    0.0000 C   0  0  0  0  0  0  0  0  0  0  0  0
   -1.1363   -8.3119    0.0000 C   0  0  0  0  0  0  0  0  0  0  0  0
   -0.0991   -7.2284    0.0000 C   0  0  0  0  0  0  0  0  0  0  0  0
    0.4446   -5.8304    0.0000 C   0  0  0  0  0  0  0  0  0  0  0  0
    1.7270   -5.0522    0.0000 C   0  0  0  0  0  0  0  0  0  0  0  0
    1.2486   -7.3427    0.0000 C   0  0  0  0  0  0  0  0  0  0  0  0
    0.5912   -8.6909    0.0000 C   0  0  0  0  0  0  0  0  0  0  0  0
   -0.5322   -9.6849    0.0000 C   0  0  0  0  0  0  0  0  0  0  0  0
   -1.9052  -10.2890    0.0000 C   0  0  0  0  0  0  0  0  0  0  0  0
   -3.1811  -11.0777    0.0000 C   0  0  0  0  0  0  0  0  0  0  0  0
   -5.4069   -8.4051    0.0000 C   0  0  0  0  0  0  0  0  0  0  0  0
   -6.4905   -7.3678    0.0000 C   0  0  0  0  0  0  0  0  0  0  0  0
   -6.5822   -8.6646    0.0000 C   0  0  0  0  0  0  0  0  0  0  0  0
   -7.0553   -9.3097    0.0000 C   0  0  0  0  0  0  0  0  0  0  0  0
   -7.8505   -9.2226    0.0000 C   0  0  0  0  0  0  0  0  0  0  0  0
   -8.8685   -8.4142    0.0000 C   0  0  0  0  0  0  0  0  0  0  0  0
   -9.1815   -6.9472    0.0000 C   0  0  0  0  0  0  0  0  0  0  0  0
   -7.1273   -4.4952    0.0000 C   0  0  0  0  0  0  0  0  0  0  0  0
   -6.5837   -3.0972    0.0000 C   0  0  0  0  0  0  0  0  0  0  0  0
   -7.8488   -2.2913    0.0000 C   0  0  0  0  0  0  0  0  0  0  0  0
   -5.5464   -2.0137    0.0000 C   0  0  0  0  0  0  0  0  0  0  0  0
   -4.1734   -1.4095    0.0000 C   0  0  0  0  0  0  0  0  0  0  0  0
   -4.6865    0.0000    0.0000 C   0  0  0  0  0  0  0  0  0  0  0  0
   -4.1734    1.4095    0.0000 C   0  0  0  0  0  0  0  0  0  0  0  0
   -2.8744    2.1595    0.0000 C   0  0  0  0  0  0  0  0  0  0  0  0
   -1.3972    1.8991    0.0000 C   0  0  0  0  0  0  0  0  0  0  0  0
   -0.4330    0.7500    0.0000 C   0  0  0  0  0  0  0  0  0  0  0  0
    0.8660    0.0000    0.0000 C   0  0  0  0  0  0  0  0  0  0  0  0
   -0.4330   -0.7500    0.0000 C   0  0  0  0  0  0  0  0  0  0  0  0
   -1.3972   -1.8991    0.0000 C   0  0  0  0  0  0  0  0  0  0  0  0
   -0.1922   -2.9577    0.0000 C   0  0  0  0  0  0  0  0  0  0  0  0
    0.4119   -4.3307    0.0000 C   0  0  0  0  0  0  0  0  0  0  0  0
   -2.8744   -2.1595    0.0000 C   0  0  0  0  0  0  0  0  0  0  0  0
   -2.2012   -3.5000    0.0000 C   0  0  0  0  0  0  0  0  0  0  0  0
   -3.5417   -4.1732    0.0000 C   0  0  0  0  0  0  0  0  0  0  0  0
   -2.8685   -5.5136    0.0000 C   0  0  0  0  0  0  0  0  0  0  0  0
   -1.6152   -6.3379    0.0000 C   0  0  0  0  0  0  0  0  0  0  0  0
   -2.2093   -7.7152    0.0000 O   0  0  0  0  0  0  0  0  0  0  0  0
   -1.5280   -4.8404    0.0000 C   0  0  0  0  0  0  0  0  0  0  0  0
   -6.5510   -4.5968    0.0000 C   0  0  0  0  0  0  0  0  0  0  0  0
   -7.0946   -5.9949    0.0000 C   0  0  0  0  0  0  0  0  0  0  0  0
   -7.9816   -7.2045    0.0000 C   0  0  0  0  0  0  0  0  0  0  0  0
   -5.9437  -11.2342    0.0000 H   0  0  0  0  0  0  0  0  0  0  0  0
   -4.4065  -11.3890    0.0000 H   0  0  0  0  0  0  0  0  0  0  0  0
   -6.3485   -9.2880    0.0000 H   0  0  0  0  0  0  0  0  0  0  0  0
   -3.0905  -10.1347    0.0000 H   0  0  0  0  0  0  0  0  0  0  0  0
   -3.5130   -7.8013    0.0000 H   0  0  0  0  0  0  0  0  0  0  0  0
   -2.2244   -9.3444    0.0000 H   0  0  0  0  0  0  0  0  0  0  0  0
    0.8193   -8.4144    0.0000 H   0  0  0  0  0  0  0  0  0  0  0  0
    1.3639   -7.5595    0.0000 H   0  0  0  0  0  0  0  0  0  0  0  0
   -1.0540   -5.7649    0.0000 H   0  0  0  0  0  0  0  0  0  0  0  0
    3.2266   -5.0195    0.0000 H   0  0  0  0  0  0  0  0  0  0  0  0
    2.3722   -8.3365    0.0000 H   0  0  0  0  0  0  0  0  0  0  0  0
    2.6669   -6.8542    0.0000 H   0  0  0  0  0  0  0  0  0  0  0  0
    1.2488  -10.0390    0.0000 H   0  0  0  0  0  0  0  0  0  0  0  0
    2.0661   -8.9642    0.0000 H   0  0  0  0  0  0  0  0  0  0  0  0
    0.7891  -10.3949    0.0000 H   0  0  0  0  0  0  0  0  0  0  0  0
   -2.6260  -12.4712    0.0000 H   0  0  0  0  0  0  0  0  0  0  0  0
   -4.6017  -11.5591    0.0000 H   0  0  0  0  0  0  0  0  0  0  0  0
   -5.1421  -10.0431    0.0000 H   0  0  0  0  0  0  0  0  0  0  0  0
   -4.6392   -7.9074    0.0000 H   0  0  0  0  0  0  0  0  0  0  0  0
   -7.1931  -11.3905    0.0000 H   0  0  0  0  0  0  0  0  0  0  0  0
   -5.7552  -11.0520    0.0000 H   0  0  0  0  0  0  0  0  0  0  0  0
   -9.7214  -10.1437    0.0000 H   0  0  0  0  0  0  0  0  0  0  0  0
   -8.1663  -11.2839    0.0000 H   0  0  0  0  0  0  0  0  0  0  0  0
  -10.3684   -8.4339    0.0000 H   0  0  0  0  0  0  0  0  0  0  0  0
  -10.6538   -7.2345    0.0000 H   0  0  0  0  0  0  0  0  0  0  0  0
   -9.7927   -5.5774    0.0000 H   0  0  0  0  0  0  0  0  0  0  0  0
   -8.6253   -4.4168    0.0000 H   0  0  0  0  0  0  0  0  0  0  0  0
   -9.1139   -1.4853    0.0000 H   0  0  0  0  0  0  0  0  0  0  0  0
   -7.2030   -0.9374    0.0000 H   0  0  0  0  0  0  0  0  0  0  0  0
   -8.8029   -3.4487    0.0000 H   0  0  0  0  0  0  0  0  0  0  0  0
   -5.7617   -0.5292    0.0000 H   0  0  0  0  0  0  0  0  0  0  0  0
   -6.8677   -1.3036    0.0000 H   0  0  0  0  0  0  0  0  0  0  0  0
   -5.0551   -2.6231    0.0000 H   0  0  0  0  0  0  0  0  0  0  0  0
   -5.9899   -0.7424    0.0000 H   0  0  0  0  0  0  0  0  0  0  0  0
   -5.9899    0.7424    0.0000 H   0  0  0  0  0  0  0  0  0  0  0  0
   -5.6491    1.6786    0.0000 H   0  0  0  0  0  0  0  0  0  0  0  0
   -4.6947    2.8161    0.0000 H   0  0  0  0  0  0  0  0  0  0  0  0
   -3.8319    3.3142    0.0000 H   0  0  0  0  0  0  0  0  0  0  0  0
   -2.3696    3.5721    0.0000 H   0  0  0  0  0  0  0  0  0  0  0  0
   -1.3884    3.3990    0.0000 H   0  0  0  0  0  0  0  0  0  0  0  0
   -0.1026    2.6566    0.0000 H   0  0  0  0  0  0  0  0  0  0  0  0
    0.6640    1.7730    0.0000 H   0  0  0  0  0  0  0  0  0  0  0  0
    1.8302    1.1491    0.0000 H   0  0  0  0  0  0  0  0  0  0  0  0
    1.8302   -1.1491    0.0000 H   0  0  0  0  0  0  0  0  0  0  0  0
    0.6640   -1.7730    0.0000 H   0  0  0  0  0  0  0  0  0  0  0  0
   -0.2314   -2.8430    0.0000 H   0  0  0  0  0  0  0  0  0  0  0  0
    1.2922   -2.7425    0.0000 H   0  0  0  0  0  0  0  0  0  0  0  0
    0.5178   -1.6364    0.0000 H   0  0  0  0  0  0  0  0  0  0  0  0
    1.6331   -3.4597    0.0000 H   0  0  0  0  0  0  0  0  0  0  0  0
   -4.0828   -3.0482    0.0000 H   0  0  0  0  0  0  0  0  0  0  0  0
   -0.7085   -3.3520    0.0000 H   0  0  0  0  0  0  0  0  0  0  0  0
   -4.9542   -4.6780    0.0000 H   0  0  0  0  0  0  0  0  0  0  0  0
   -4.3732   -2.9248    0.0000 H   0  0  0  0  0  0  0  0  0  0  0  0
   -3.9890   -6.5108    0.0000 H   0  0  0  0  0  0  0  0  0  0  0  0
   -0.2827   -7.0267    0.0000 H   0  0  0  0  0  0  0  0  0  0  0  0
   -3.7093   -7.7065    0.0000 H   0  0  0  0  0  0  0  0  0  0  0  0
   -0.0293   -4.9016    0.0000 H   0  0  0  0  0  0  0  0  0  0  0  0
   -5.4674   -5.6341    0.0000 H   0  0  0  0  0  0  0  0  0  0  0  0
   -5.2619   -3.8299    0.0000 H   0  0  0  0  0  0  0  0  0  0  0  0
   -8.9407   -6.0512    0.0000 H   0  0  0  0  0  0  0  0  0  0  0  0
  1  2  1  0
  2  3  1  0
  3  4  1  0
  4  5  1  0
  5  6  1  0
  6  7  1  0
  7  8  1  0
  8  9  1  0
  9 10  1  0
 10 11  1  0
 11 12  1  0
 12 13  1  0
 13 14  1  0
 14 15  1  0
 15 16  1  0
 16 17  1  0
 17 18  1  0
 18 19  1  0
 19 20  1  0
 20 21  1  0
 21 22  1  0
 21 23  1  0
 23 24  1  0
 24 25  1  0
 25 26  1  0
 26 27  1  0
 27 28  1  0
 28 29  1  0
 29 30  1  0
 30 31  1  0
 31 32  1  0
 32 33  1  0
 33 34  1  0
 32 35  1  0
 35 36  1  0
 36 37  1  0
 37 38  1  0
 38 39  1  0
 39 40  1  0
 39 41  1  0
 21 42  1  0
 42 43  1  0
 43 44  1  0
 13  2  1  0
 43 14  1  0
 11  3  1  0
 44 14  1  0
 10  4  1  0
 13 11  1  0
 44 18  1  0
 34  6  1  0
 41 36  1  0
 34  7  1  0
 41 38  1  0
 43 20  1  0
 35 24  1  0
 31 29  1  0
  1 45  1  0
  1 46  1  0
  1 47  1  0
  2 48  1  0
  3 49  1  0
  4 50  1  0
  5 51  1  0
  5 52  1  0
  6 53  1  0
  7 54  1  0
  8 55  1  0
  8 56  1  0
  9 57  1  0
  9 58  1  0
 10 59  1  0
 12 60  1  0
 12 61  1  0
 15 62  1  0
 15 63  1  0
 16 64  1  0
 16 65  1  0
 17 66  1  0
 17 67  1  0
 18 68  1  0
 19 69  1  0
 19 70  1  0
 20 71  1  0
 22 72  1  0
 22 73  1  0
 22 74  1  0
 23 75  1  0
 23 76  1  0
 24 77  1  0
 25 78  1  0
 25 79  1  0
 26 80  1  0
 26 81  1  0
 27 82  1  0
 27 83  1  0
 28 84  1  0
 28 85  1  0
 29 86  1  0
 30 87  1  0
 30 88  1  0
 31 89  1  0
 32 90  1  0
 33 91  1  0
 33 92  1  0
 34 93  1  0
 35 94  1  0
 36 95  1  0
 37 96  1  0
 37 97  1  0
 38 98  1  0
 39 99  1  0
 40100  1  0
 41101  1  0
 42102  1  0
 42103  1  0
 44104  1  0
M  END
$$$$
