
     RDKit          2D

 71 76  0  0  0  0  0  0  0  0999 V2000
    5.6869    5.7453    0.0000 C   0  0  0  0  0  0  0  0  0  0  0  0
    4.7228    4.5963    0.0000 C   0  0  0  0  0  0  0  0  0  0  0  0
    3.5737    5.5604    0.0000 O   0  0  0  0  0  0  0  0  0  0  0  0
    3.7586    3.4472    0.0000 C   0  0  0  0  0  0  0  0  0  0  0  0
    2.7944    2.2981    0.0000 C   0  0  0  0  0  0  0  0  0  0  0  0
    1.8302    1.1491    0.0000 C   0  0  0  0  0  0  0  0  0  0  0  0
    0.8660    0.0000    0.0000 C   0  0  0  0  0  0  0  0  0  0  0  0
   -0.4330    0.7500    0.0000 C   0  0  0  0  0  0  0  0  0  0  0  0
   -1.9330    0.7500    0.0000 C   0  0  0  0  0  0  0  0  0  0  0  0
   -3.9710    1.7273    0.0000 C   0  0  0  0  0  0  0  0  0  0  0  0
   -5.4653    1.5966    0.0000 C   0  0  0  0  0  0  0  0  0  0  0  0
   -5.9917    2.1952    0.0000 Br  0  0  0  0  0  0  0  0  0  0  0  0
   -6.8247    0.9627    0.0000 C   0  0  0  0  0  0  0  0  0  0  0  0
   -7.8854   -0.0980    0.0000 C   0  0  0  0  0  0  0  0  0  0  0  0
   -8.5193   -1.4575    0.0000 O   0  0  0  0  0  0  0  0  0  0  0  0
   -8.6501   -2.9518    0.0000 C   0  0  0  0  0  0  0  0  0  0  0  0
   -8.2618   -4.4006    0.0000 C   0  0  0  0  0  0  0  0  0  0  0  0
   -7.4015   -5.6294    0.0000 C   0  0  0  0  0  0  0  0  0  0  0  0
   -6.1727   -6.4897    0.0000 C   0  0  0  0  0  0  0  0  0  0  0  0
   -4.7239   -6.8780    0.0000 C   0  0  0  0  0  0  0  0  0  0  0  0
   -3.2296   -6.7472    0.0000 O   0  0  0  0  0  0  0  0  0  0  0  0
   -1.8701   -6.1133    0.0000 C   0  0  0  0  0  0  0  0  0  0  0  0
   -0.8094   -5.0526    0.0000 C   0  0  0  0  0  0  0  0  0  0  0  0
    0.6848   -4.9219    0.0000 C   0  0  0  0  0  0  0  0  0  0  0  0
   -0.1755   -3.6932    0.0000 C   0  0  0  0  0  0  0  0  0  0  0  0
    1.2734   -3.3050    0.0000 C   0  0  0  0  0  0  0  0  0  0  0  0
   -0.0448   -2.1989    0.0000 C   0  0  0  0  0  0  0  0  0  0  0  0
   -0.4330   -0.7500    0.0000 C   0  0  0  0  0  0  0  0  0  0  0  0
   -1.9330   -0.7500    0.0000 C   0  0  0  0  0  0  0  0  0  0  0  0
   -7.5322   -7.1237    0.0000 C   0  0  0  0  0  0  0  0  0  0  0  0
    6.6511    6.8944    0.0000 H   0  0  0  0  0  0  0  0  0  0  0  0
    6.8360    4.7812    0.0000 H   0  0  0  0  0  0  0  0  0  0  0  0
    4.6640    6.8424    0.0000 H   0  0  0  0  0  0  0  0  0  0  0  0
    5.8718    3.6321    0.0000 H   0  0  0  0  0  0  0  0  0  0  0  0
    3.6521    7.0584    0.0000 H   0  0  0  0  0  0  0  0  0  0  0  0
    4.9076    2.4830    0.0000 H   0  0  0  0  0  0  0  0  0  0  0  0
    2.6095    4.4114    0.0000 H   0  0  0  0  0  0  0  0  0  0  0  0
    1.6453    3.2623    0.0000 H   0  0  0  0  0  0  0  0  0  0  0  0
    3.9435    1.3340    0.0000 H   0  0  0  0  0  0  0  0  0  0  0  0
    0.8072    2.2461    0.0000 H   0  0  0  0  0  0  0  0  0  0  0  0
    2.9793    0.1849    0.0000 H   0  0  0  0  0  0  0  0  0  0  0  0
    1.9631   -1.0230    0.0000 H   0  0  0  0  0  0  0  0  0  0  0  0
   -0.2243    2.2354    0.0000 H   0  0  0  0  0  0  0  0  0  0  0  0
   -2.9937    1.8107    0.0000 H   0  0  0  0  0  0  0  0  0  0  0  0
   -4.3290    2.6440    0.0000 H   0  0  0  0  0  0  0  0  0  0  0  0
   -3.0406    2.9039    0.0000 H   0  0  0  0  0  0  0  0  0  0  0  0
   -5.3087    2.3782    0.0000 H   0  0  0  0  0  0  0  0  0  0  0  0
   -8.1409    1.6823    0.0000 H   0  0  0  0  0  0  0  0  0  0  0  0
   -6.9731    1.9356    0.0000 H   0  0  0  0  0  0  0  0  0  0  0  0
   -9.3848   -0.0544    0.0000 H   0  0  0  0  0  0  0  0  0  0  0  0
   -8.6050    1.2181    0.0000 H   0  0  0  0  0  0  0  0  0  0  0  0
   -9.9313   -3.7317    0.0000 H   0  0  0  0  0  0  0  0  0  0  0  0
   -9.9704   -2.2399    0.0000 H   0  0  0  0  0  0  0  0  0  0  0  0
   -9.1991   -5.5718    0.0000 H   0  0  0  0  0  0  0  0  0  0  0  0
   -9.7614   -4.3658    0.0000 H   0  0  0  0  0  0  0  0  0  0  0  0
   -8.7922   -6.1913    0.0000 H   0  0  0  0  0  0  0  0  0  0  0  0
   -6.0420   -7.9840    0.0000 H   0  0  0  0  0  0  0  0  0  0  0  0
   -4.8546   -8.3723    0.0000 H   0  0  0  0  0  0  0  0  0  0  0  0
   -0.5540   -6.8329    0.0000 H   0  0  0  0  0  0  0  0  0  0  0  0
   -1.8265   -7.6127    0.0000 H   0  0  0  0  0  0  0  0  0  0  0  0
   -0.0145   -6.3247    0.0000 H   0  0  0  0  0  0  0  0  0  0  0  0
    1.0731   -6.3708    0.0000 H   0  0  0  0  0  0  0  0  0  0  0  0
    2.1114   -4.4584    0.0000 H   0  0  0  0  0  0  0  0  0  0  0  0
    2.7223   -2.9167    0.0000 H   0  0  0  0  0  0  0  0  0  0  0  0
    1.0647   -1.8195    0.0000 H   0  0  0  0  0  0  0  0  0  0  0  0
    1.8353   -4.6957    0.0000 H   0  0  0  0  0  0  0  0  0  0  0  0
    1.1318   -1.2685    0.0000 H   0  0  0  0  0  0  0  0  0  0  0  0
    1.4085   -2.5702    0.0000 H   0  0  0  0  0  0  0  0  0  0  0  0
   -3.4330   -0.7500    0.0000 H   0  0  0  0  0  0  0  0  0  0  0  0
   -1.9330   -2.2500    0.0000 H   0  0  0  0  0  0  0  0  0  0  0  0
   -8.3926   -8.3524    0.0000 H   0  0  0  0  0  0  0  0  0  0  0  0
  1  2  1  0
  2  3  1  0
  2  4  1  0
  4  5  1  0
  5  6  1  0
  6  7  1  0
  7  8  1  0
  8  9  1  0
  9 10  1  0
 10 11  1  0
 11 12  1  0
 11 13  1  0
 13 14  1  0
 14 15  1  0
 15 16  1  0
 16 17  1  0
 17 18  1  0
 18 19  1  0
 19 20  1  0
 20 21  1  0
 21 22  1  0
 22 23  1  0
 23 24  1  0
 24 25  1  0
 25 26  1  0
 25 27  1  0
 27 28  1  0
 28 29  1  0
 20 30  1  0
 28  7  1  0
 28  8  1  0
 29  9  1  0
 30 18  1  0
 30 19  1  0
 25 23  1  0
  1 31  1  0
  1 32  1  0
  1 33  1  0
  2 34  1  0
  3 35  1  0
  4 36  1  0
  4 37  1  0
  5 38  1  0
  5 39  1  0
  6 40  1  0
  6 41  1  0
  7 42  1  0
  8 43  1  0
  9 44  1  0
 10 45  1  0
 10 46  1  0
 11 47  1  0
 13 48  1  0
 13 49  1  0
 14 50  1  0
 14 51  1  0
 16 52  1  0
 16 53  1  0
 17 54  1  0
 17 55  1  0
 18 56  1  0
 19 57  1  0
 20 58  1  0
 22 59  1  0
 22 60  1  0
 23 61  1  0
 24 62  1  0
 24 63  1  0
 26 64  1  0
 26 65  1  0
 26 66  1  0
 27 67  1  0
 27 68  1  0
 29 69  1  0
 29 70  1  0
 30 71  1  0
M  END
$$$$
