
     RDKit          3D

 38 44  0  0  0  0  0  0  0  0999 V2000
   28.7196  -24.0842   -3.0549 O   0  0  0  0  0  0  0  0  0  0  0  0
   30.3566  -25.3675   -5.0250 C   0  0  0  0  0  0  0  0  0  0  0  0
   31.7310  -24.9701   -5.6056 C   0  0  0  0  0  0  0  0  0  0  0  0
   28.1890  -26.7200   -5.4026 C   0  0  0  0  0  0  0  0  0  0  0  0
   32.6990  -26.1008   -5.9489 C   0  0  0  0  0  0  0  0  0  0  0  0
   34.3065  -24.2496   -4.7715 Cl  0  0  0  0  0  0  0  0  0  0  0  0
   32.8680  -25.2995   -4.6575 C   0  0  0  0  0  0  0  0  0  0  0  0
   29.5645  -25.8288   -7.4872 C   0  0  0  0  0  0  0  0  0  0  0  0
   28.5929  -26.5151   -8.2200 F   0  0  0  0  0  0  0  0  0  0  0  0
   29.1997  -25.7034   -5.9921 C   0  0  0  0  0  0  0  0  0  0  0  0
   27.0327  -23.3154   -4.5722 C   0  0  0  0  0  0  0  0  0  0  0  0
   26.9376  -21.5309   -6.5985 C   0  0  0  0  0  0  0  0  0  0  0  0
   25.7891  -24.8694   -9.4115 C   0  0  0  0  0  0  0  0  0  0  0  0
   27.5616  -20.1586   -6.9418 C   0  0  0  0  0  0  0  0  0  0  0  0
   27.0568  -24.1127   -9.4221 N   0  0  0  0  0  0  0  0  0  0  0  0
   25.0211  -24.8912   -8.0521 C   0  0  0  0  0  0  0  0  0  0  0  0
   24.6522  -23.9030   -9.1665 C   0  0  0  0  0  0  0  0  0  0  0  0
   27.3965  -18.1605   -5.7564 C   0  0  0  0  0  0  0  0  0  0  0  0
   26.7019  -19.1258   -6.5026 O   0  0  0  0  0  0  0  0  0  0  0  0
   28.3716  -23.9477   -4.2258 C   0  0  0  0  0  0  0  0  0  0  0  0
   25.2930  -22.5396   -9.1156 C   0  0  0  0  0  0  0  0  0  0  0  0
   24.0171  -26.0083   -7.8273 C   0  0  0  0  0  0  0  0  0  0  0  0
   26.1663  -22.8469   -3.3937 C   0  0  0  0  0  0  0  0  0  0  0  0
   26.1045  -21.4338   -4.0291 C   0  0  0  0  0  0  0  0  0  0  0  0
   26.8091  -22.7505   -8.9541 C   0  0  0  0  0  0  0  0  0  0  0  0
   23.8375  -27.0505   -8.9864 C   0  0  0  0  0  0  0  0  0  0  0  0
   22.7492  -25.5837   -7.1513 C   0  0  0  0  0  0  0  0  0  0  0  0
   29.3052  -24.3056   -5.3521 C   0  0  0  0  0  0  0  0  0  0  0  0
   23.0728  -26.2679   -5.1369 C   0  0  0  0  0  0  0  0  0  0  0  0
   27.1689  -21.8520   -5.0769 C   0  0  0  0  0  0  0  0  0  0  0  0
   21.1301  -24.6789   -5.3120 C   0  0  0  0  0  0  0  0  0  0  0  0
   24.7068  -21.1164   -4.5680 C   0  0  0  0  0  0  0  0  0  0  0  0
   24.1156  -28.0005   -6.4020 C   0  0  0  0  0  0  0  0  0  0  0  0
   21.8793  -25.8760   -5.9332 C   0  0  0  0  0  0  0  0  0  0  0  0
   25.3283  -28.5098   -6.1865 C   0  0  0  0  0  0  0  0  0  0  0  0
   23.9298  -26.4935   -6.3963 C   0  0  0  0  0  0  0  0  0  0  0  0
   20.8925  -27.0110   -6.2705 C   0  0  0  0  0  0  0  0  0  0  0  0
   27.4551  -22.6261   -7.5478 C   0  0  0  0  0  0  0  0  0  0  0  0
  3  2  1  0
  5  3  1  0
  7  3  1  0
  7  5  1  0
  7  6  1  0
  9  8  1  0
 10  2  1  0
 10  4  1  0
 10  8  1  0
 14 12  1  0
 15 13  1  0
 16 13  1  0
 17 13  1  0
 17 16  1  0
 19 14  1  0
 19 18  1  0
 20  1  2  0
 20 11  1  0
 21 17  1  0
 22 16  1  0
 23 11  1  0
 24 23  1  0
 25 15  1  0
 25 21  1  0
 26 22  1  0
 27 22  1  0
 28  2  1  0
 28 10  1  0
 28 20  1  0
 30 11  1  0
 30 12  1  0
 30 24  1  0
 32 24  1  0
 34 27  1  0
 34 29  1  0
 34 31  1  0
 35 33  2  0
 36 22  1  0
 36 27  1  0
 36 29  1  0
 36 33  1  0
 37 34  1  0
 38 12  1  0
 38 25  1  0
M  END
$$$$
