
     RDKit          2D

 75 82  0  0  0  0  0  0  0  0999 V2000
  -10.1422   -5.6915    0.0000 C   0  0  0  0  0  0  0  0  0  0  0  0
   -9.7540   -4.2426    0.0000 C   0  0  0  0  0  0  0  0  0  0  0  0
   -9.3658   -2.7938    0.0000 C   0  0  0  0  0  0  0  0  0  0  0  0
   -8.3051   -4.6309    0.0000 C   0  0  0  0  0  0  0  0  0  0  0  0
   -6.8562   -5.0191    0.0000 C   0  0  0  0  0  0  0  0  0  0  0  0
   -5.4073   -5.4073    0.0000 N   0  0  0  0  0  0  0  0  0  0  0  0
   -4.3467   -4.3467    0.0000 C   0  0  0  0  0  0  0  0  0  0  0  0
   -3.2860   -3.2860    0.0000 N   0  0  0  0  0  0  0  0  0  0  0  0
   -2.8978   -1.8371    0.0000 C   0  0  0  0  0  0  0  0  0  0  0  0
   -1.8371   -2.8978    0.0000 C   0  0  0  0  0  0  0  0  0  0  0  0
   -1.4489   -1.4489    0.0000 C   0  0  0  0  0  0  0  0  0  0  0  0
   -0.0000   -1.0607    0.0000 C   0  0  0  0  0  0  0  0  0  0  0  0
    1.0607    0.0000    0.0000 O   0  0  0  0  0  0  0  0  0  0  0  0
    0.0000    1.0607    0.0000 C   0  0  0  0  0  0  0  0  0  0  0  0
   -1.4489    1.4489    0.0000 C   0  0  0  0  0  0  0  0  0  0  0  0
   -1.0607    2.8978    0.0000 C   0  0  0  0  0  0  0  0  0  0  0  0
   -2.1213    3.9584    0.0000 C   0  0  0  0  0  0  0  0  0  0  0  0
   -3.5702    3.5702    0.0000 C   0  0  0  0  0  0  0  0  0  0  0  0
   -5.0645    3.7009    0.0000 C   0  0  0  0  0  0  0  0  0  0  0  0
   -6.5588    3.8317    0.0000 C   0  0  0  0  0  0  0  0  0  0  0  0
   -7.9183    4.4656    0.0000 C   0  0  0  0  0  0  0  0  0  0  0  0
   -6.6895    5.3260    0.0000 C   0  0  0  0  0  0  0  0  0  0  0  0
   -3.9584    2.1213    0.0000 C   0  0  0  0  0  0  0  0  0  0  0  0
   -2.8978    1.0607    0.0000 C   0  0  0  0  0  0  0  0  0  0  0  0
   -1.0607    0.0000    0.0000 C   0  0  0  0  0  0  0  0  0  0  0  0
   -3.2860   -5.4073    0.0000 N   0  0  0  0  0  0  0  0  0  0  0  0
   -1.8371   -5.7956    0.0000 C   0  0  0  0  0  0  0  0  0  0  0  0
   -2.8978   -6.8562    0.0000 C   0  0  0  0  0  0  0  0  0  0  0  0
   -2.0374   -8.0849    0.0000 C   0  0  0  0  0  0  0  0  0  0  0  0
   -4.2572   -7.4901    0.0000 C   0  0  0  0  0  0  0  0  0  0  0  0
   -5.6167   -8.1241    0.0000 C   0  0  0  0  0  0  0  0  0  0  0  0
   -3.6233   -8.8496    0.0000 C   0  0  0  0  0  0  0  0  0  0  0  0
  -10.5304   -7.1404    0.0000 H   0  0  0  0  0  0  0  0  0  0  0  0
  -11.5911   -5.3033    0.0000 H   0  0  0  0  0  0  0  0  0  0  0  0
   -9.3210   -6.0234    0.0000 H   0  0  0  0  0  0  0  0  0  0  0  0
  -11.2029   -3.8544    0.0000 H   0  0  0  0  0  0  0  0  0  0  0  0
   -8.9775   -1.3449    0.0000 H   0  0  0  0  0  0  0  0  0  0  0  0
   -8.4886   -2.9170    0.0000 H   0  0  0  0  0  0  0  0  0  0  0  0
  -10.8147   -2.4055    0.0000 H   0  0  0  0  0  0  0  0  0  0  0  0
   -8.4284   -5.5080    0.0000 H   0  0  0  0  0  0  0  0  0  0  0  0
   -7.9733   -3.8096    0.0000 H   0  0  0  0  0  0  0  0  0  0  0  0
   -6.4680   -3.5702    0.0000 H   0  0  0  0  0  0  0  0  0  0  0  0
   -7.2444   -6.4680    0.0000 H   0  0  0  0  0  0  0  0  0  0  0  0
   -5.1986   -6.8927    0.0000 H   0  0  0  0  0  0  0  0  0  0  0  0
   -5.4073   -3.2860    0.0000 H   0  0  0  0  0  0  0  0  0  0  0  0
   -3.9584   -0.7765    0.0000 H   0  0  0  0  0  0  0  0  0  0  0  0
   -0.6551   -3.8212    0.0000 H   0  0  0  0  0  0  0  0  0  0  0  0
    0.7500   -2.3597    0.0000 H   0  0  0  0  0  0  0  0  0  0  0  0
    0.7500    2.3597    0.0000 H   0  0  0  0  0  0  0  0  0  0  0  0
    0.3882    3.2860    0.0000 H   0  0  0  0  0  0  0  0  0  0  0  0
   -1.7331    5.4073    0.0000 H   0  0  0  0  0  0  0  0  0  0  0  0
   -3.7009    5.0645    0.0000 H   0  0  0  0  0  0  0  0  0  0  0  0
   -4.7838    5.0214    0.0000 H   0  0  0  0  0  0  0  0  0  0  0  0
   -5.2691    2.7383    0.0000 H   0  0  0  0  0  0  0  0  0  0  0  0
   -6.9470    2.3828    0.0000 H   0  0  0  0  0  0  0  0  0  0  0  0
   -8.7786    3.2369    0.0000 H   0  0  0  0  0  0  0  0  0  0  0  0
   -8.9789    5.5263    0.0000 H   0  0  0  0  0  0  0  0  0  0  0  0
   -7.3235    6.6854    0.0000 H   0  0  0  0  0  0  0  0  0  0  0  0
   -5.4378    5.8317    0.0000 H   0  0  0  0  0  0  0  0  0  0  0  0
   -4.8188    0.8926    0.0000 H   0  0  0  0  0  0  0  0  0  0  0  0
   -4.8944    2.4254    0.0000 H   0  0  0  0  0  0  0  0  0  0  0  0
   -2.2639   -0.2988    0.0000 H   0  0  0  0  0  0  0  0  0  0  0  0
   -4.1265    0.2003    0.0000 H   0  0  0  0  0  0  0  0  0  0  0  0
   -1.0422   -4.5235    0.0000 H   0  0  0  0  0  0  0  0  0  0  0  0
   -0.5127   -6.4997    0.0000 H   0  0  0  0  0  0  0  0  0  0  0  0
   -1.1770   -9.3137    0.0000 H   0  0  0  0  0  0  0  0  0  0  0  0
   -3.0214   -9.2171    0.0000 H   0  0  0  0  0  0  0  0  0  0  0  0
   -0.7130   -7.3808    0.0000 H   0  0  0  0  0  0  0  0  0  0  0  0
   -5.3363   -6.4482    0.0000 H   0  0  0  0  0  0  0  0  0  0  0  0
   -6.9762   -8.7580    0.0000 H   0  0  0  0  0  0  0  0  0  0  0  0
   -5.1532   -9.5507    0.0000 H   0  0  0  0  0  0  0  0  0  0  0  0
   -6.2506   -6.7646    0.0000 H   0  0  0  0  0  0  0  0  0  0  0  0
   -2.9894  -10.2091    0.0000 H   0  0  0  0  0  0  0  0  0  0  0  0
   -4.8954   -9.6445    0.0000 H   0  0  0  0  0  0  0  0  0  0  0  0
   -2.1509   -8.5635    0.0000 H   0  0  0  0  0  0  0  0  0  0  0  0
  1  2  1  0
  2  3  1  0
  2  4  1  0
  4  5  1  0
  5  6  1  0
  6  7  1  0
  7  8  1  0
  8  9  1  0
  9 10  1  0
 10 11  1  0
 11 12  1  0
 12 13  1  0
 13 14  1  0
 14 15  1  0
 15 16  1  0
 16 17  2  0
 17 18  1  0
 18 19  1  0
 19 20  1  0
 20 21  1  0
 21 22  1  0
 18 23  1  0
 23 24  1  0
 15 25  1  0
  7 26  1  0
 26 27  1  0
 27 28  1  0
 28 29  1  0
 28 30  1  0
 30 31  1  0
 30 32  1  0
 10  8  1  0
 25 11  1  0
 28 26  1  0
 11  9  1  0
 25 12  1  0
 25 14  1  0
 24 15  1  0
 22 20  1  0
  1 33  1  0
  1 34  1  0
  1 35  1  0
  2 36  1  0
  3 37  1  0
  3 38  1  0
  3 39  1  0
  4 40  1  0
  4 41  1  0
  5 42  1  0
  5 43  1  0
  6 44  1  0
  7 45  1  0
  9 46  1  0
 10 47  1  0
 12 48  1  0
 14 49  1  0
 16 50  1  0
 17 51  1  0
 18 52  1  0
 19 53  1  0
 19 54  1  0
 20 55  1  0
 21 56  1  0
 21 57  1  0
 22 58  1  0
 22 59  1  0
 23 60  1  0
 23 61  1  0
 24 62  1  0
 24 63  1  0
 27 64  1  0
 27 65  1  0
 29 66  1  0
 29 67  1  0
 29 68  1  0
 30 69  1  0
 31 70  1  0
 31 71  1  0
 31 72  1  0
 32 73  1  0
 32 74  1  0
 32 75  1  0
M  END
$$$$
