
     RDKit          2D

 52 57  0  0  0  0  0  0  0  0999 V2000
   -2.6962    1.1491    0.0000 C   0  0  0  0  0  0  0  0  0  0  0  0
   -1.7321    0.0000    0.0000 C   0  0  0  0  0  0  0  0  0  0  0  0
   -0.4330    0.7500    0.0000 C   0  0  0  0  0  0  0  0  0  0  0  0
    0.8660    0.0000    0.0000 C   0  0  0  0  0  0  0  0  0  0  0  0
   -0.4330   -0.7500    0.0000 C   0  0  0  0  0  0  0  0  0  0  0  0
   -0.4330   -2.2500    0.0000 C   0  0  0  0  0  0  0  0  0  0  0  0
   -0.4330   -3.7500    0.0000 C   0  0  0  0  0  0  0  0  0  0  0  0
    0.0800   -5.1595    0.0000 N   0  0  0  0  0  0  0  0  0  0  0  0
    1.0442   -4.0105    0.0000 C   0  0  0  0  0  0  0  0  0  0  0  0
    2.3432   -4.7605    0.0000 C   0  0  0  0  0  0  0  0  0  0  0  0
    3.6423   -5.5105    0.0000 N   0  0  0  0  0  0  0  0  0  0  0  0
    3.6423   -7.0105    0.0000 C   0  0  0  0  0  0  0  0  0  0  0  0
    4.1553   -8.4200    0.0000 C   0  0  0  0  0  0  0  0  0  0  0  0
    5.1195   -7.2709    0.0000 N   0  0  0  0  0  0  0  0  0  0  0  0
    3.0932   -3.4614    0.0000 N   0  0  0  0  0  0  0  0  0  0  0  0
    3.0932   -1.9614    0.0000 C   0  0  0  0  0  0  0  0  0  0  0  0
    4.3923   -2.7114    0.0000 C   0  0  0  0  0  0  0  0  0  0  0  0
    5.3565   -1.5624    0.0000 C   0  0  0  0  0  0  0  0  0  0  0  0
    6.5055   -2.5265    0.0000 C   0  0  0  0  0  0  0  0  0  0  0  0
    7.4697   -1.3775    0.0000 C   0  0  0  0  0  0  0  0  0  0  0  0
    8.4339   -0.2284    0.0000 C   0  0  0  0  0  0  0  0  0  0  0  0
    9.3981    0.9207    0.0000 Cl  0  0  0  0  0  0  0  0  0  0  0  0
    6.3206   -0.4133    0.0000 C   0  0  0  0  0  0  0  0  0  0  0  0
   -3.6604    2.2981    0.0000 H   0  0  0  0  0  0  0  0  0  0  0  0
   -3.8453    0.1849    0.0000 H   0  0  0  0  0  0  0  0  0  0  0  0
   -1.5472    2.1132    0.0000 H   0  0  0  0  0  0  0  0  0  0  0  0
   -2.6962   -1.1491    0.0000 H   0  0  0  0  0  0  0  0  0  0  0  0
   -0.4330    2.2500    0.0000 H   0  0  0  0  0  0  0  0  0  0  0  0
    1.8302    1.1491    0.0000 H   0  0  0  0  0  0  0  0  0  0  0  0
    1.4616   -0.9171    0.0000 H   0  0  0  0  0  0  0  0  0  0  0  0
    0.8769   -1.9233    0.0000 H   0  0  0  0  0  0  0  0  0  0  0  0
   -1.9330   -2.2500    0.0000 H   0  0  0  0  0  0  0  0  0  0  0  0
   -1.9102   -4.0105    0.0000 H   0  0  0  0  0  0  0  0  0  0  0  0
   -0.1805   -6.6368    0.0000 H   0  0  0  0  0  0  0  0  0  0  0  0
    1.5059   -2.7419    0.0000 H   0  0  0  0  0  0  0  0  0  0  0  0
    1.5932   -6.0595    0.0000 H   0  0  0  0  0  0  0  0  0  0  0  0
    4.8114   -4.8355    0.0000 H   0  0  0  0  0  0  0  0  0  0  0  0
    2.1651   -7.2709    0.0000 H   0  0  0  0  0  0  0  0  0  0  0  0
    2.8563   -9.1700    0.0000 H   0  0  0  0  0  0  0  0  0  0  0  0
    5.1195   -9.5691    0.0000 H   0  0  0  0  0  0  0  0  0  0  0  0
    6.5290   -6.7579    0.0000 H   0  0  0  0  0  0  0  0  0  0  0  0
    2.0475   -1.6417    0.0000 H   0  0  0  0  0  0  0  0  0  0  0  0
    3.3969   -0.6460    0.0000 H   0  0  0  0  0  0  0  0  0  0  0  0
    4.9283   -3.5368    0.0000 H   0  0  0  0  0  0  0  0  0  0  0  0
    4.4358   -0.5750    0.0000 H   0  0  0  0  0  0  0  0  0  0  0  0
    7.6546   -3.4907    0.0000 H   0  0  0  0  0  0  0  0  0  0  0  0
    5.9100   -3.4437    0.0000 H   0  0  0  0  0  0  0  0  0  0  0  0
    8.6188   -2.3417    0.0000 H   0  0  0  0  0  0  0  0  0  0  0  0
    9.5830   -1.1926    0.0000 H   0  0  0  0  0  0  0  0  0  0  0  0
    7.8298    0.4194    0.0000 H   0  0  0  0  0  0  0  0  0  0  0  0
    5.1716    0.5509    0.0000 H   0  0  0  0  0  0  0  0  0  0  0  0
    6.8030    0.3296    0.0000 H   0  0  0  0  0  0  0  0  0  0  0  0
  1  2  1  0
  2  3  1  0
  3  4  1  0
  4  5  1  0
  5  6  1  0
  6  7  1  0
  7  8  1  0
  8  9  1  0
  9 10  1  0
 10 11  1  0
 11 12  1  0
 12 13  1  0
 13 14  1  0
 10 15  1  0
 15 16  1  0
 16 17  1  0
 17 18  1  0
 18 19  1  0
 19 20  1  0
 20 21  1  0
 21 22  1  0
 20 23  1  0
  5  2  1  0
  9  7  1  0
 14 12  1  0
 17 15  1  0
 23 18  1  0
  5  3  1  0
  1 24  1  0
  1 25  1  0
  1 26  1  0
  2 27  1  0
  3 28  1  0
  4 29  1  0
  4 30  1  0
  6 31  1  0
  6 32  1  0
  7 33  1  0
  8 34  1  0
  9 35  1  0
 10 36  1  0
 11 37  1  0
 12 38  1  0
 13 39  1  0
 13 40  1  0
 14 41  1  0
 16 42  1  0
 16 43  1  0
 17 44  1  0
 18 45  1  0
 19 46  1  0
 19 47  1  0
 20 48  1  0
 21 49  1  0
 21 50  1  0
 23 51  1  0
 23 52  1  0
M  END
$$$$
