
     RDKit          2D

 61 61  0  0  0  0  0  0  0  0999 V2000
    2.5368   -2.2754    0.0000 C   0  0  0  0  0  0  0  0  0  0  0  0
    1.0696   -1.9635    0.0000 C   0  0  0  0  0  0  0  0  0  0  0  0
   -0.0451   -2.9672    0.0000 O   0  0  0  0  0  0  0  0  0  0  0  0
   -1.3442   -2.2172    0.0000 C   0  0  0  0  0  0  0  0  0  0  0  0
   -1.0323   -0.7500    0.0000 C   0  0  0  0  0  0  0  0  0  0  0  0
   -1.0323    0.7500    0.0000 C   0  0  0  0  0  0  0  0  0  0  0  0
   -1.0323    2.2500    0.0000 C   0  0  0  0  0  0  0  0  0  0  0  0
   -1.0323    3.7500    0.0000 C   0  0  0  0  0  0  0  0  0  0  0  0
   -2.5241   -0.5932    0.0000 C   0  0  0  0  0  0  0  0  0  0  0  0
   -4.0159   -0.4364    0.0000 C   0  0  0  0  0  0  0  0  0  0  0  0
   -5.5076   -0.2796    0.0000 C   0  0  0  0  0  0  0  0  0  0  0  0
   -6.9994   -0.1228    0.0000 C   0  0  0  0  0  0  0  0  0  0  0  0
   -8.4912    0.0340    0.0000 C   0  0  0  0  0  0  0  0  0  0  0  0
   -9.9830    0.1908    0.0000 C   0  0  0  0  0  0  0  0  0  0  0  0
   -8.6480   -1.4578    0.0000 C   0  0  0  0  0  0  0  0  0  0  0  0
   -8.8048   -2.9496    0.0000 C   0  0  0  0  0  0  0  0  0  0  0  0
  -10.2966   -2.7928    0.0000 O   0  0  0  0  0  0  0  0  0  0  0  0
   -8.9616   -4.4414    0.0000 C   0  0  0  0  0  0  0  0  0  0  0  0
   -9.1184   -5.9332    0.0000 C   0  0  0  0  0  0  0  0  0  0  0  0
   -7.4698   -4.5982    0.0000 C   0  0  0  0  0  0  0  0  0  0  0  0
   -5.9780   -4.7550    0.0000 C   0  0  0  0  0  0  0  0  0  0  0  0
   -4.4862   -4.9118    0.0000 C   0  0  0  0  0  0  0  0  0  0  0  0
    0.4595   -0.5932    0.0000 O   0  0  0  0  0  0  0  0  0  0  0  0
    3.5405   -1.1607    0.0000 H   0  0  0  0  0  0  0  0  0  0  0  0
    3.0003   -3.7020    0.0000 H   0  0  0  0  0  0  0  0  0  0  0  0
   -2.1267   -2.0651    0.0000 H   0  0  0  0  0  0  0  0  0  0  0  0
   -1.9543   -3.5875    0.0000 H   0  0  0  0  0  0  0  0  0  0  0  0
   -2.5211    0.9328    0.0000 H   0  0  0  0  0  0  0  0  0  0  0  0
    0.4677    0.7500    0.0000 H   0  0  0  0  0  0  0  0  0  0  0  0
    0.4677    2.2500    0.0000 H   0  0  0  0  0  0  0  0  0  0  0  0
   -2.5323    2.2500    0.0000 H   0  0  0  0  0  0  0  0  0  0  0  0
   -1.0323    5.2500    0.0000 H   0  0  0  0  0  0  0  0  0  0  0  0
   -2.5323    3.7500    0.0000 H   0  0  0  0  0  0  0  0  0  0  0  0
    0.4677    3.7500    0.0000 H   0  0  0  0  0  0  0  0  0  0  0  0
   -2.7034   -1.3699    0.0000 H   0  0  0  0  0  0  0  0  0  0  0  0
   -2.5503    0.9066    0.0000 H   0  0  0  0  0  0  0  0  0  0  0  0
   -3.8591    1.0554    0.0000 H   0  0  0  0  0  0  0  0  0  0  0  0
   -4.1726   -1.9282    0.0000 H   0  0  0  0  0  0  0  0  0  0  0  0
   -5.6644   -1.7714    0.0000 H   0  0  0  0  0  0  0  0  0  0  0  0
   -5.3508    1.2122    0.0000 H   0  0  0  0  0  0  0  0  0  0  0  0
   -6.8426    1.3690    0.0000 H   0  0  0  0  0  0  0  0  0  0  0  0
   -6.9732   -1.6226    0.0000 H   0  0  0  0  0  0  0  0  0  0  0  0
   -8.3344    1.5257    0.0000 H   0  0  0  0  0  0  0  0  0  0  0  0
  -11.4748    0.3475    0.0000 H   0  0  0  0  0  0  0  0  0  0  0  0
   -9.8262    1.6825    0.0000 H   0  0  0  0  0  0  0  0  0  0  0  0
  -10.3204   -1.2708    0.0000 H   0  0  0  0  0  0  0  0  0  0  0  0
  -10.1478   -1.4840    0.0000 H   0  0  0  0  0  0  0  0  0  0  0  0
   -7.1864   -1.7953    0.0000 H   0  0  0  0  0  0  0  0  0  0  0  0
   -7.3050   -2.9234    0.0000 H   0  0  0  0  0  0  0  0  0  0  0  0
  -11.3196   -3.8898    0.0000 H   0  0  0  0  0  0  0  0  0  0  0  0
  -10.4613   -4.4676    0.0000 H   0  0  0  0  0  0  0  0  0  0  0  0
   -9.2752   -7.4250    0.0000 H   0  0  0  0  0  0  0  0  0  0  0  0
  -10.6102   -5.7764    0.0000 H   0  0  0  0  0  0  0  0  0  0  0  0
   -7.6568   -6.2706    0.0000 H   0  0  0  0  0  0  0  0  0  0  0  0
   -7.4436   -6.0979    0.0000 H   0  0  0  0  0  0  0  0  0  0  0  0
   -7.1323   -3.1366    0.0000 H   0  0  0  0  0  0  0  0  0  0  0  0
   -6.1348   -6.2468    0.0000 H   0  0  0  0  0  0  0  0  0  0  0  0
   -5.8212   -3.2632    0.0000 H   0  0  0  0  0  0  0  0  0  0  0  0
   -2.9944   -5.0686    0.0000 H   0  0  0  0  0  0  0  0  0  0  0  0
   -4.6430   -6.4035    0.0000 H   0  0  0  0  0  0  0  0  0  0  0  0
   -4.3294   -3.4200    0.0000 H   0  0  0  0  0  0  0  0  0  0  0  0
  1  2  2  3
  2  3  1  0
  3  4  1  0
  4  5  1  0
  5  6  1  0
  6  7  1  0
  7  8  1  0
  5  9  1  0
  9 10  1  0
 10 11  1  0
 11 12  1  0
 12 13  1  0
 13 14  1  0
 13 15  1  0
 15 16  1  0
 16 17  1  0
 16 18  1  0
 18 19  1  0
 18 20  1  0
 20 21  1  0
 21 22  1  0
  5 23  1  0
 23  2  1  0
  1 24  1  0
  1 25  1  0
  4 26  1  0
  4 27  1  0
  6 28  1  0
  6 29  1  0
  7 30  1  0
  7 31  1  0
  8 32  1  0
  8 33  1  0
  8 34  1  0
  9 35  1  0
  9 36  1  0
 10 37  1  0
 10 38  1  0
 11 39  1  0
 11 40  1  0
 12 41  1  0
 12 42  1  0
 13 43  1  0
 14 44  1  0
 14 45  1  0
 14 46  1  0
 15 47  1  0
 15 48  1  0
 16 49  1  0
 17 50  1  0
 18 51  1  0
 19 52  1  0
 19 53  1  0
 19 54  1  0
 20 55  1  0
 20 56  1  0
 21 57  1  0
 21 58  1  0
 22 59  1  0
 22 60  1  0
 22 61  1  0
M  END
$$$$
