
     RDKit          2D

 57 64  0  0  0  0  0  0  0  0999 V2000
   -1.3682    6.1257    0.0000 C   0  0  0  0  0  0  0  0  0  0  0  0
   -0.4330    4.9529    0.0000 C   0  0  0  0  0  0  0  0  0  0  0  0
   -1.0838    3.6015    0.0000 C   0  0  0  0  0  0  0  0  0  0  0  0
   -2.2566    2.6662    0.0000 C   0  0  0  0  0  0  0  0  0  0  0  0
   -0.4330    2.2500    0.0000 C   0  0  0  0  0  0  0  0  0  0  0  0
   -0.4330    0.7500    0.0000 C   0  0  0  0  0  0  0  0  0  0  0  0
    0.8660    0.0000    0.0000 O   0  0  0  0  0  0  0  0  0  0  0  0
   -0.4330   -0.7500    0.0000 C   0  0  0  0  0  0  0  0  0  0  0  0
   -0.2094   -2.2332    0.0000 C   0  0  0  0  0  0  0  0  0  0  0  0
    0.2410   -3.6679    0.0000 C   0  0  0  0  0  0  0  0  0  0  0  0
   -0.6943   -4.8406    0.0000 C   0  0  0  0  0  0  0  0  0  0  0  0
   -2.1775   -4.6170    0.0000 C   0  0  0  0  0  0  0  0  0  0  0  0
   -2.7255   -3.2207    0.0000 C   0  0  0  0  0  0  0  0  0  0  0  0
   -3.5705   -1.9814    0.0000 C   0  0  0  0  0  0  0  0  0  0  0  0
   -3.1284   -0.5480    0.0000 C   0  0  0  0  0  0  0  0  0  0  0  0
   -1.7321    0.0000    0.0000 C   0  0  0  0  0  0  0  0  0  0  0  0
   -1.2297   -3.3328    0.0000 C   0  0  0  0  0  0  0  0  0  0  0  0
    1.0294    1.9162    0.0000 C   0  0  0  0  0  0  0  0  0  0  0  0
    2.2021    2.8515    0.0000 C   0  0  0  0  0  0  0  0  0  0  0  0
    2.2021    4.3515    0.0000 C   0  0  0  0  0  0  0  0  0  0  0  0
    1.0294    5.2867    0.0000 C   0  0  0  0  0  0  0  0  0  0  0  0
    0.3786    6.6381    0.0000 C   0  0  0  0  0  0  0  0  0  0  0  0
   -0.2723    7.9896    0.0000 C   0  0  0  0  0  0  0  0  0  0  0  0
   -1.1173    6.7502    0.0000 C   0  0  0  0  0  0  0  0  0  0  0  0
    1.2235    7.8775    0.0000 C   0  0  0  0  0  0  0  0  0  0  0  0
   -1.1744    7.6131    0.0000 H   0  0  0  0  0  0  0  0  0  0  0  0
   -2.8132    5.7230    0.0000 H   0  0  0  0  0  0  0  0  0  0  0  0
   -2.2566    4.5367    0.0000 H   0  0  0  0  0  0  0  0  0  0  0  0
   -3.5346    1.8809    0.0000 H   0  0  0  0  0  0  0  0  0  0  0  0
   -3.1918    3.8390    0.0000 H   0  0  0  0  0  0  0  0  0  0  0  0
   -1.4713    1.3882    0.0000 H   0  0  0  0  0  0  0  0  0  0  0  0
   -1.8954    1.9162    0.0000 H   0  0  0  0  0  0  0  0  0  0  0  0
    1.2671   -2.4974    0.0000 H   0  0  0  0  0  0  0  0  0  0  0  0
    1.2335   -4.7925    0.0000 H   0  0  0  0  0  0  0  0  0  0  0  0
    1.6067   -3.0476    0.0000 H   0  0  0  0  0  0  0  0  0  0  0  0
   -1.1720   -6.2625    0.0000 H   0  0  0  0  0  0  0  0  0  0  0  0
    0.6231   -5.5580    0.0000 H   0  0  0  0  0  0  0  0  0  0  0  0
   -3.6006   -5.0913    0.0000 H   0  0  0  0  0  0  0  0  0  0  0  0
   -2.1401   -6.1166    0.0000 H   0  0  0  0  0  0  0  0  0  0  0  0
   -3.6283   -4.4187    0.0000 H   0  0  0  0  0  0  0  0  0  0  0  0
   -4.5908   -3.0809    0.0000 H   0  0  0  0  0  0  0  0  0  0  0  0
   -4.9513   -1.3953    0.0000 H   0  0  0  0  0  0  0  0  0  0  0  0
   -4.5993   -0.2544    0.0000 H   0  0  0  0  0  0  0  0  0  0  0  0
   -3.5311    0.8969    0.0000 H   0  0  0  0  0  0  0  0  0  0  0  0
   -2.5428    1.2620    0.0000 H   0  0  0  0  0  0  0  0  0  0  0  0
   -0.1508   -4.3749    0.0000 H   0  0  0  0  0  0  0  0  0  0  0  0
   -1.3119   -4.8306    0.0000 H   0  0  0  0  0  0  0  0  0  0  0  0
    2.0794    0.8450    0.0000 H   0  0  0  0  0  0  0  0  0  0  0  0
    0.7249    0.4474    0.0000 H   0  0  0  0  0  0  0  0  0  0  0  0
    3.6943    3.0045    0.0000 H   0  0  0  0  0  0  0  0  0  0  0  0
    3.0128    1.5894    0.0000 H   0  0  0  0  0  0  0  0  0  0  0  0
    3.0128    5.6135    0.0000 H   0  0  0  0  0  0  0  0  0  0  0  0
    3.6943    4.1984    0.0000 H   0  0  0  0  0  0  0  0  0  0  0  0
    2.0794    6.3579    0.0000 H   0  0  0  0  0  0  0  0  0  0  0  0
   -0.9231    9.3410    0.0000 H   0  0  0  0  0  0  0  0  0  0  0  0
   -2.5380    6.2690    0.0000 H   0  0  0  0  0  0  0  0  0  0  0  0
    2.5750    8.5283    0.0000 H   0  0  0  0  0  0  0  0  0  0  0  0
  1  2  2  3
  2  3  1  0
  3  4  1  0
  3  5  1  0
  5  6  1  0
  6  7  1  0
  7  8  1  0
  8  9  1  0
  9 10  1  0
 10 11  1  0
 11 12  1  0
 12 13  1  0
 13 14  1  0
 14 15  1  0
 15 16  1  0
 13 17  1  0
  5 18  1  0
 18 19  1  0
 19 20  1  0
 20 21  1  0
 21 22  1  0
 22 23  1  0
 23 24  1  0
 24 25  1  0
 21  2  1  0
 24 22  1  0
  8  6  1  0
 17  9  1  0
 25 22  1  0
 16  6  1  0
 25 23  1  0
 16  8  1  0
  1 26  1  0
  1 27  1  0
  3 28  1  0
  4 29  1  0
  4 30  1  0
  4 31  1  0
  5 32  1  0
  9 33  1  0
 10 34  1  0
 10 35  1  0
 11 36  1  0
 11 37  1  0
 12 38  1  0
 12 39  1  0
 13 40  1  0
 14 41  1  0
 14 42  1  0
 15 43  1  0
 15 44  1  0
 16 45  1  0
 17 46  1  0
 17 47  1  0
 18 48  1  0
 18 49  1  0
 19 50  1  0
 19 51  1  0
 20 52  1  0
 20 53  1  0
 21 54  1  0
 23 55  1  0
 24 56  1  0
 25 57  1  0
M  END
$$$$
