
     RDKit          3D

 45 55  0  0  0  0  0  0  0  0999 V2000
   15.0691  -13.6679   -3.6970 C   0  0  0  0  0  0  0  0  0  0  0  0
   23.6888  -18.1258   -8.9565 C   0  0  0  0  0  0  0  0  0  0  0  0
   23.0172  -17.9669   -7.6211 C   0  0  0  0  0  0  0  0  0  0  0  0
   24.4664  -16.6834   -9.2381 C   0  0  0  0  0  0  0  0  0  0  0  0
   15.9165  -14.9780   -3.2535 C   0  0  0  0  0  0  0  0  0  0  0  0
   15.1453  -13.6733   -5.1919 N   0  0  0  0  0  0  0  0  0  0  0  0
   17.0455  -15.2455   -1.9677 C   0  0  0  0  0  0  0  0  0  0  0  0
   13.8032  -13.5283   -4.6051 C   0  0  0  0  0  0  0  0  0  0  0  0
   18.6395  -14.6545   -1.6624 C   0  0  0  0  0  0  0  0  0  0  0  0
   20.7933  -13.0598   -2.9490 C   0  0  0  0  0  0  0  0  0  0  0  0
   22.4111  -13.3724   -5.3269 C   0  0  0  0  0  0  0  0  0  0  0  0
   20.3170  -14.1446   -1.8517 C   0  0  0  0  0  0  0  0  0  0  0  0
   23.9021  -15.4527   -8.1440 C   0  0  0  0  0  0  0  0  0  0  0  0
   13.9889  -18.5544   -3.9413 C   0  0  0  0  0  0  0  0  0  0  0  0
   12.9049  -19.1927   -4.6727 O   0  0  0  0  0  0  0  0  0  0  0  0
   14.9198  -16.2864   -3.4206 C   0  0  0  0  0  0  0  0  0  0  0  0
   22.2036  -18.4682   -9.5642 C   0  0  0  0  0  0  0  0  0  0  0  0
   21.6433  -15.6437   -5.5541 C   0  0  0  0  0  0  0  0  0  0  0  0
   21.6986  -17.6350   -8.4655 C   0  0  0  0  0  0  0  0  0  0  0  0
   15.5090  -18.5128   -5.3220 C   0  0  0  0  0  0  0  0  0  0  0  0
   14.8790  -19.0853   -2.7921 C   0  0  0  0  0  0  0  0  0  0  0  0
   15.8154  -21.9101   -5.2547 C   0  0  0  0  0  0  0  0  0  0  0  0
   17.5482  -17.8979   -3.5952 C   0  0  0  0  0  0  0  0  0  0  0  0
   16.2656  -20.7961   -6.1127 N   0  0  0  0  0  0  0  0  0  0  0  0
   17.6244  -16.8589   -4.5820 C   0  0  0  0  0  0  0  0  0  0  0  0
   15.3006  -19.3585   -4.1685 C   0  0  0  0  0  0  0  0  0  0  0  0
   16.4217  -19.0207   -3.1635 C   0  0  0  0  0  0  0  0  0  0  0  0
   14.5378  -17.3844   -4.6978 C   0  0  0  0  0  0  0  0  0  0  0  0
   17.8210  -14.4657    1.3127 C   0  0  0  0  0  0  0  0  0  0  0  0
   20.1654  -13.5948   -4.2066 C   0  0  0  0  0  0  0  0  0  0  0  0
   18.6700  -14.8635   -0.0220 C   0  0  0  0  0  0  0  0  0  0  0  0
   20.7316  -16.4142   -8.2872 C   0  0  0  0  0  0  0  0  0  0  0  0
   19.2356  -16.7801   -8.3369 C   0  0  0  0  0  0  0  0  0  0  0  0
   18.6107  -15.0257    2.5775 C   0  0  0  0  0  0  0  0  0  0  0  0
   15.2915  -19.6561   -6.3762 C   0  0  0  0  0  0  0  0  0  0  0  0
   22.1857  -11.9680   -4.9562 C   0  0  0  0  0  0  0  0  0  0  0  0
   23.6692  -17.1725   -6.4607 C   0  0  0  0  0  0  0  0  0  0  0  0
   18.5755  -13.6149   -3.8919 C   0  0  0  0  0  0  0  0  0  0  0  0
   21.5932  -11.7501   -3.4668 C   0  0  0  0  0  0  0  0  0  0  0  0
   21.2097  -16.9150   -4.7728 C   0  0  0  0  0  0  0  0  0  0  0  0
   21.5295  -14.4244   -4.6618 C   0  0  0  0  0  0  0  0  0  0  0  0
   18.0571  -13.4960   -2.3658 C   0  0  0  0  0  0  0  0  0  0  0  0
   21.4676  -16.4493   -9.5321 C   0  0  0  0  0  0  0  0  0  0  0  0
   23.2198  -15.7423   -6.5523 C   0  0  0  0  0  0  0  0  0  0  0  0
   16.5520  -13.9293   -2.2219 C   0  0  0  0  0  0  0  0  0  0  0  0
  3  2  1  0
  4  2  1  0
  5  1  1  0
  6  1  1  0
  7  5  1  0
  8  1  1  0
  8  6  1  0
  9  7  1  0
 12  9  1  0
 12 10  1  0
 13  4  1  0
 15 14  1  0
 16  5  1  0
 17  2  1  0
 19  3  1  0
 19 17  1  0
 21 14  1  0
 24 22  1  0
 25 23  2  0
 26 14  1  0
 26 20  1  0
 26 21  1  0
 27 21  1  0
 27 23  1  0
 27 26  1  0
 28 14  1  0
 28 16  1  0
 28 20  1  0
 30 10  1  0
 31  9  1  0
 31 29  1  0
 32 19  1  0
 33 32  1  0
 34 29  1  0
 35 20  1  0
 35 24  1  0
 36 11  1  0
 37  3  1  0
 38 30  1  0
 39 10  1  0
 39 36  1  0
 40 18  1  0
 41 11  1  0
 41 18  1  0
 41 30  1  0
 42  9  1  0
 42 38  1  0
 43 19  1  0
 43 32  1  0
 44 13  1  0
 44 18  1  0
 44 37  1  0
 45  5  1  0
 45  7  1  0
 45 42  1  0
M  END
$$$$
