
     RDKit          2D

112116  0  0  0  0  0  0  0  0999 V2000
   -3.7437   -5.7078    0.0000 C   0  0  0  0  0  0  0  0  0  0  0  0
   -2.9937   -4.4087    0.0000 C   0  0  0  0  0  0  0  0  0  0  0  0
   -1.4937   -4.4087    0.0000 C   0  0  0  0  0  0  0  0  0  0  0  0
   -0.7437   -3.1097    0.0000 C   0  0  0  0  0  0  0  0  0  0  0  0
   -1.4937   -1.8107    0.0000 C   0  0  0  0  0  0  0  0  0  0  0  0
   -2.0677   -3.1965    0.0000 O   0  0  0  0  0  0  0  0  0  0  0  0
   -2.9937   -1.8107    0.0000 C   0  0  0  0  0  0  0  0  0  0  0  0
   -3.7437   -3.1097    0.0000 C   0  0  0  0  0  0  0  0  0  0  0  0
   -4.0543   -0.7500    0.0000 C   0  0  0  0  0  0  0  0  0  0  0  0
   -4.0543    0.7500    0.0000 C   0  0  0  0  0  0  0  0  0  0  0  0
   -4.8043    2.0490    0.0000 C   0  0  0  0  0  0  0  0  0  0  0  0
   -5.5543    3.3481    0.0000 C   0  0  0  0  0  0  0  0  0  0  0  0
   -6.3043    4.6471    0.0000 C   0  0  0  0  0  0  0  0  0  0  0  0
   -7.0543    5.9462    0.0000 C   0  0  0  0  0  0  0  0  0  0  0  0
   -6.8534    2.5981    0.0000 C   0  0  0  0  0  0  0  0  0  0  0  0
   -8.1524    1.8481    0.0000 C   0  0  0  0  0  0  0  0  0  0  0  0
   -7.6034    3.8971    0.0000 C   0  0  0  0  0  0  0  0  0  0  0  0
   -2.9937    1.8107    0.0000 C   0  0  0  0  0  0  0  0  0  0  0  0
   -1.4937    1.8107    0.0000 C   0  0  0  0  0  0  0  0  0  0  0  0
   -0.2703    2.6787    0.0000 C   0  0  0  0  0  0  0  0  0  0  0  0
    1.1710    2.2634    0.0000 C   0  0  0  0  0  0  0  0  0  0  0  0
    1.5212    3.7220    0.0000 C   0  0  0  0  0  0  0  0  0  0  0  0
    2.6618    4.6961    0.0000 C   0  0  0  0  0  0  0  0  0  0  0  0
    4.1572    4.8138    0.0000 N   0  0  0  0  0  0  0  0  0  0  0  0
    5.4362    4.0301    0.0000 C   0  0  0  0  0  0  0  0  0  0  0  0
    6.9315    4.1478    0.0000 C   0  0  0  0  0  0  0  0  0  0  0  0
    6.0102    2.6443    0.0000 C   0  0  0  0  0  0  0  0  0  0  0  0
    7.2891    1.8605    0.0000 C   0  0  0  0  0  0  0  0  0  0  0  0
    8.5681    1.0768    0.0000 C   0  0  0  0  0  0  0  0  0  0  0  0
    5.6600    1.1857    0.0000 C   0  0  0  0  0  0  0  0  0  0  0  0
    4.5194    0.2115    0.0000 C   0  0  0  0  0  0  0  0  0  0  0  0
    5.0934   -1.1743    0.0000 O   0  0  0  0  0  0  0  0  0  0  0  0
    3.0240    0.0938    0.0000 C   0  0  0  0  0  0  0  0  0  0  0  0
    1.7451    0.8776    0.0000 C   0  0  0  0  0  0  0  0  0  0  0  0
    1.0195   -0.4352    0.0000 C   0  0  0  0  0  0  0  0  0  0  0  0
   -0.4330   -0.7500    0.0000 C   0  0  0  0  0  0  0  0  0  0  0  0
   -0.4330    0.7500    0.0000 C   0  0  0  0  0  0  0  0  0  0  0  0
    0.1660    0.0000    0.0000 C   0  0  0  0  0  0  0  0  0  0  0  0
    1.8302    1.1491    0.0000 C   0  0  0  0  0  0  0  0  0  0  0  0
    2.7944    2.2981    0.0000 C   0  0  0  0  0  0  0  0  0  0  0  0
    3.7586    3.4472    0.0000 C   0  0  0  0  0  0  0  0  0  0  0  0
    4.7228    4.5963    0.0000 C   0  0  0  0  0  0  0  0  0  0  0  0
    2.9793    0.1849    0.0000 N   0  0  0  0  0  0  0  0  0  0  0  0
    4.3888    0.6979    0.0000 O   0  0  0  0  0  0  0  0  0  0  0  0
   -5.2437   -5.7078    0.0000 H   0  0  0  0  0  0  0  0  0  0  0  0
   -2.9937   -7.0068    0.0000 H   0  0  0  0  0  0  0  0  0  0  0  0
   -1.7541   -5.8859    0.0000 H   0  0  0  0  0  0  0  0  0  0  0  0
   -0.0841   -4.9218    0.0000 H   0  0  0  0  0  0  0  0  0  0  0  0
    0.4054   -4.0739    0.0000 H   0  0  0  0  0  0  0  0  0  0  0  0
    0.5144   -2.2928    0.0000 H   0  0  0  0  0  0  0  0  0  0  0  0
   -3.4633   -3.7463    0.0000 H   0  0  0  0  0  0  0  0  0  0  0  0
   -4.4936   -1.8237    0.0000 H   0  0  0  0  0  0  0  0  0  0  0  0
   -5.0017   -2.2928    0.0000 H   0  0  0  0  0  0  0  0  0  0  0  0
   -4.8927   -4.0739    0.0000 H   0  0  0  0  0  0  0  0  0  0  0  0
   -5.5397   -0.5413    0.0000 H   0  0  0  0  0  0  0  0  0  0  0  0
   -4.4173    0.7054    0.0000 H   0  0  0  0  0  0  0  0  0  0  0  0
   -5.5397    0.5413    0.0000 H   0  0  0  0  0  0  0  0  0  0  0  0
   -6.0023    1.1463    0.0000 H   0  0  0  0  0  0  0  0  0  0  0  0
   -3.6064    2.9518    0.0000 H   0  0  0  0  0  0  0  0  0  0  0  0
   -4.2553    4.0981    0.0000 H   0  0  0  0  0  0  0  0  0  0  0  0
   -5.0053    5.3971    0.0000 H   0  0  0  0  0  0  0  0  0  0  0  0
   -7.7462    4.2337    0.0000 H   0  0  0  0  0  0  0  0  0  0  0  0
   -7.8043    7.2452    0.0000 H   0  0  0  0  0  0  0  0  0  0  0  0
   -5.7553    6.6962    0.0000 H   0  0  0  0  0  0  0  0  0  0  0  0
   -8.4351    5.3601    0.0000 H   0  0  0  0  0  0  0  0  0  0  0  0
   -6.2673    1.2173    0.0000 H   0  0  0  0  0  0  0  0  0  0  0  0
   -9.4514    1.0981    0.0000 H   0  0  0  0  0  0  0  0  0  0  0  0
   -9.0552    3.0460    0.0000 H   0  0  0  0  0  0  0  0  0  0  0  0
   -7.4024    0.5490    0.0000 H   0  0  0  0  0  0  0  0  0  0  0  0
   -8.5061    5.0950    0.0000 H   0  0  0  0  0  0  0  0  0  0  0  0
   -8.9841    3.3111    0.0000 H   0  0  0  0  0  0  0  0  0  0  0  0
   -6.5244    4.9392    0.0000 H   0  0  0  0  0  0  0  0  0  0  0  0
   -2.6054    3.2595    0.0000 H   0  0  0  0  0  0  0  0  0  0  0  0
   -3.9376    2.9765    0.0000 H   0  0  0  0  0  0  0  0  0  0  0  0
   -1.0929    3.2561    0.0000 H   0  0  0  0  0  0  0  0  0  0  0  0
   -1.2586    3.8071    0.0000 H   0  0  0  0  0  0  0  0  0  0  0  0
    0.2898    4.0702    0.0000 H   0  0  0  0  0  0  0  0  0  0  0  0
   -0.0630    1.4107    0.0000 H   0  0  0  0  0  0  0  0  0  0  0  0
    0.7825    5.0275    0.0000 H   0  0  0  0  0  0  0  0  0  0  0  0
    0.0226    3.7874    0.0000 H   0  0  0  0  0  0  0  0  0  0  0  0
    2.8316    6.1865    0.0000 H   0  0  0  0  0  0  0  0  0  0  0  0
    1.4879    5.6299    0.0000 H   0  0  0  0  0  0  0  0  0  0  0  0
    4.5074    6.2724    0.0000 H   0  0  0  0  0  0  0  0  0  0  0  0
    5.9615    5.4351    0.0000 H   0  0  0  0  0  0  0  0  0  0  0  0
    8.4269    4.2655    0.0000 H   0  0  0  0  0  0  0  0  0  0  0  0
    6.8138    5.6431    0.0000 H   0  0  0  0  0  0  0  0  0  0  0  0
    7.0492    2.6524    0.0000 H   0  0  0  0  0  0  0  0  0  0  0  0
    7.3526    3.3135    0.0000 H   0  0  0  0  0  0  0  0  0  0  0  0
    8.0729    3.1395    0.0000 H   0  0  0  0  0  0  0  0  0  0  0  0
    6.6671    0.4956    0.0000 H   0  0  0  0  0  0  0  0  0  0  0  0
    9.8471    0.2930    0.0000 H   0  0  0  0  0  0  0  0  0  0  0  0
    7.7844   -0.2022    0.0000 H   0  0  0  0  0  0  0  0  0  0  0  0
    9.3519    2.3557    0.0000 H   0  0  0  0  0  0  0  0  0  0  0  0
    6.2340   -0.2001    0.0000 H   0  0  0  0  0  0  0  0  0  0  0  0
    7.1394    0.9381    0.0000 H   0  0  0  0  0  0  0  0  0  0  0  0
    2.1530   -1.1274    0.0000 H   0  0  0  0  0  0  0  0  0  0  0  0
    3.7627   -1.2117    0.0000 H   0  0  0  0  0  0  0  0  0  0  0  0
    3.2389    1.0139    0.0000 H   0  0  0  0  0  0  0  0  0  0  0  0
    2.2162   -1.3396    0.0000 H   0  0  0  0  0  0  0  0  0  0  0  0
    1.1186   -1.9320    0.0000 H   0  0  0  0  0  0  0  0  0  0  0  0
    0.7409    1.6837    0.0000 H   0  0  0  0  0  0  0  0  0  0  0  0
    1.6830   -1.2580    0.0000 H   0  0  0  0  0  0  0  0  0  0  0  0
    1.1031    2.4611    0.0000 H   0  0  0  0  0  0  0  0  0  0  0  0
    4.2127    1.8099    0.0000 H   0  0  0  0  0  0  0  0  0  0  0  0
    1.9128    3.5117    0.0000 H   0  0  0  0  0  0  0  0  0  0  0  0
    2.8770    4.6608    0.0000 H   0  0  0  0  0  0  0  0  0  0  0  0
    4.9076    2.4830    0.0000 H   0  0  0  0  0  0  0  0  0  0  0  0
    5.5397    5.8543    0.0000 H   0  0  0  0  0  0  0  0  0  0  0  0
    3.6998    5.6933    0.0000 H   0  0  0  0  0  0  0  0  0  0  0  0
    6.0710    3.9388    0.0000 H   0  0  0  0  0  0  0  0  0  0  0  0
    2.9008   -1.3131    0.0000 H   0  0  0  0  0  0  0  0  0  0  0  0
    5.4118   -0.3991    0.0000 H   0  0  0  0  0  0  0  0  0  0  0  0
  1  2  2  3
  2  3  1  0
  3  4  1  0
  4  5  1  0
  5  6  1  0
  5  7  1  0
  7  8  1  0
  7  9  1  0
  9 10  1  0
 10 11  1  0
 11 12  1  0
 12 13  1  0
 13 14  1  0
 12 15  1  0
 15 16  1  0
 15 17  1  0
 10 18  1  0
 18 19  1  0
 19 20  1  0
 20 21  1  0
 21 22  1  0
 22 23  1  0
 23 24  1  0
 24 25  1  0
 25 26  1  0
 25 27  1  0
 27 28  1  0
 28 29  1  0
 27 30  1  0
 30 31  1  0
 31 32  2  0
 31 33  1  0
 33 34  1  0
 34 35  1  0
 35 36  1  0
 36 37  1  0
 37 38  1  0
 38 39  1  0
 39 40  1  0
 40 41  1  0
 41 42  1  0
 39 43  1  0
 43 44  1  0
  8  2  1  0
 37 19  1  0
 36  5  1  0
 34 21  1  0
 38 36  1  0
  1 45  1  0
  1 46  1  0
  3 47  1  0
  3 48  1  0
  4 49  1  0
  4 50  1  0
  6 51  1  0
  7 52  1  0
  8 53  1  0
  8 54  1  0
  9 55  1  0
  9 56  1  0
 10 57  1  0
 11 58  1  0
 11 59  1  0
 12 60  1  0
 13 61  1  0
 13 62  1  0
 14 63  1  0
 14 64  1  0
 14 65  1  0
 15 66  1  0
 16 67  1  0
 16 68  1  0
 16 69  1  0
 17 70  1  0
 17 71  1  0
 17 72  1  0
 18 73  1  0
 18 74  1  0
 19 75  1  0
 20 76  1  0
 20 77  1  0
 21 78  1  0
 22 79  1  0
 22 80  1  0
 23 81  1  0
 23 82  1  0
 24 83  1  0
 25 84  1  0
 26 85  1  0
 26 86  1  0
 26 87  1  0
 27 88  1  0
 28 89  1  0
 28 90  1  0
 29 91  1  0
 29 92  1  0
 29 93  1  0
 30 94  1  0
 30 95  1  0
 33 96  1  0
 33 97  1  0
 34 98  1  0
 35 99  1  0
 35100  1  0
 37101  1  0
 38102  1  0
 39103  1  0
 40104  1  0
 40105  1  0
 41106  1  0
 41107  1  0
 42108  1  0
 42109  1  0
 42110  1  0
 43111  1  0
 44112  1  0
M  END
$$$$
