
     RDKit          2D

 36 38  0  0  0  0  0  0  0  0999 V2000
    5.6915    2.7938    0.0000 C   0  0  0  0  0  0  0  0  0  0  0  0
    4.6309    1.7331    0.0000 C   0  0  0  0  0  0  0  0  0  0  0  0
    3.1820    2.1213    0.0000 C   0  0  0  0  0  0  0  0  0  0  0  0
    2.7938    3.5702    0.0000 N   0  0  0  0  0  0  0  0  0  0  0  0
    2.1213    1.0607    0.0000 C   0  0  0  0  0  0  0  0  0  0  0  0
    1.0607    0.0000    0.0000 C   0  0  0  0  0  0  0  0  0  0  0  0
   -0.0000   -1.0607    0.0000 C   0  0  0  0  0  0  0  0  0  0  0  0
    1.0607   -2.1213    0.0000 C   0  0  0  0  0  0  0  0  0  0  0  0
   -1.0607    0.0000    0.0000 C   0  0  0  0  0  0  0  0  0  0  0  0
    0.0000    1.0607    0.0000 C   0  0  0  0  0  0  0  0  0  0  0  0
   -1.0607    2.1213    0.0000 N   0  0  0  0  0  0  0  0  0  0  0  0
   -0.6724    3.5702    0.0000 C   0  0  0  0  0  0  0  0  0  0  0  0
    0.7765    3.9584    0.0000 O   0  0  0  0  0  0  0  0  0  0  0  0
   -1.7331    4.6309    0.0000 C   0  0  0  0  0  0  0  0  0  0  0  0
   -0.8727    5.8596    0.0000 C   0  0  0  0  0  0  0  0  0  0  0  0
   -1.5067    7.2191    0.0000 N   0  0  0  0  0  0  0  0  0  0  0  0
   -2.3670    5.9903    0.0000 C   0  0  0  0  0  0  0  0  0  0  0  0
    7.1404    2.4055    0.0000 H   0  0  0  0  0  0  0  0  0  0  0  0
    5.3033    4.2426    0.0000 H   0  0  0  0  0  0  0  0  0  0  0  0
    5.0191    0.2842    0.0000 H   0  0  0  0  0  0  0  0  0  0  0  0
    3.8544    4.6309    0.0000 H   0  0  0  0  0  0  0  0  0  0  0  0
    1.5760    1.7586    0.0000 H   0  0  0  0  0  0  0  0  0  0  0  0
    3.1820    0.0000    0.0000 H   0  0  0  0  0  0  0  0  0  0  0  0
    1.7586   -0.5453    0.0000 H   0  0  0  0  0  0  0  0  0  0  0  0
   -1.0607   -2.1213    0.0000 H   0  0  0  0  0  0  0  0  0  0  0  0
    2.1213   -3.1820    0.0000 H   0  0  0  0  0  0  0  0  0  0  0  0
    0.0000   -3.1820    0.0000 H   0  0  0  0  0  0  0  0  0  0  0  0
    1.7586   -1.5760    0.0000 H   0  0  0  0  0  0  0  0  0  0  0  0
   -2.1213   -1.0607    0.0000 H   0  0  0  0  0  0  0  0  0  0  0  0
   -2.2427    0.9235    0.0000 H   0  0  0  0  0  0  0  0  0  0  0  0
    0.5453    1.7586    0.0000 H   0  0  0  0  0  0  0  0  0  0  0  0
   -2.5461    1.9126    0.0000 H   0  0  0  0  0  0  0  0  0  0  0  0
   -2.9618    3.7705    0.0000 H   0  0  0  0  0  0  0  0  0  0  0  0
    0.6216    5.7289    0.0000 H   0  0  0  0  0  0  0  0  0  0  0  0
   -1.3759    8.7134    0.0000 H   0  0  0  0  0  0  0  0  0  0  0  0
   -3.8613    6.1211    0.0000 H   0  0  0  0  0  0  0  0  0  0  0  0
  1  2  2  3
  2  3  1  0
  3  4  2  3
  3  5  1  0
  5  6  1  0
  6  7  1  0
  7  8  1  0
  7  9  1  0
  9 10  1  0
 10 11  1  0
 11 12  1  0
 12 13  2  0
 12 14  1  0
 14 15  1  0
 15 16  1  0
 16 17  1  0
 10  6  1  0
 17 14  1  0
 17 15  1  0
  1 18  1  0
  1 19  1  0
  2 20  1  0
  4 21  1  0
  5 22  1  0
  5 23  1  0
  6 24  1  0
  7 25  1  0
  8 26  1  0
  8 27  1  0
  8 28  1  0
  9 29  1  0
  9 30  1  0
 10 31  1  0
 11 32  1  0
 14 33  1  0
 15 34  1  0
 16 35  1  0
 17 36  1  0
M  END
$$$$
