
     RDKit          2D

 27 28  0  0  0  0  0  0  0  0999 V2000
   -4.7797    1.9147    0.0000 C   0  0  0  0  0  0  0  0  0  0  0  0
   -4.3915    3.3636    0.0000 C   0  0  0  0  0  0  0  0  0  0  0  0
   -4.0032    4.8125    0.0000 C   0  0  0  0  0  0  0  0  0  0  0  0
   -2.9426    2.9753    0.0000 C   0  0  0  0  0  0  0  0  0  0  0  0
   -1.4937    2.5871    0.0000 C   0  0  0  0  0  0  0  0  0  0  0  0
   -0.0448    2.1989    0.0000 C   0  0  0  0  0  0  0  0  0  0  0  0
   -0.4330    0.7500    0.0000 C   0  0  0  0  0  0  0  0  0  0  0  0
   -1.8819    1.1382    0.0000 C   0  0  0  0  0  0  0  0  0  0  0  0
    0.8660    0.0000    0.0000 O   0  0  0  0  0  0  0  0  0  0  0  0
   -0.4330   -0.7500    0.0000 C   0  0  0  0  0  0  0  0  0  0  0  0
    0.0800   -2.1595    0.0000 O   0  0  0  0  0  0  0  0  0  0  0  0
   -5.1679    0.4658    0.0000 H   0  0  0  0  0  0  0  0  0  0  0  0
   -5.5188    2.2133    0.0000 H   0  0  0  0  0  0  0  0  0  0  0  0
   -5.5691    2.0256    0.0000 H   0  0  0  0  0  0  0  0  0  0  0  0
   -5.8403    3.7518    0.0000 H   0  0  0  0  0  0  0  0  0  0  0  0
   -3.6150    6.2614    0.0000 H   0  0  0  0  0  0  0  0  0  0  0  0
   -5.4521    5.2007    0.0000 H   0  0  0  0  0  0  0  0  0  0  0  0
   -2.5178    4.6037    0.0000 H   0  0  0  0  0  0  0  0  0  0  0  0
   -3.5045    1.5846    0.0000 H   0  0  0  0  0  0  0  0  0  0  0  0
   -2.3806    4.3661    0.0000 H   0  0  0  0  0  0  0  0  0  0  0  0
   -1.1054    4.0360    0.0000 H   0  0  0  0  0  0  0  0  0  0  0  0
    0.3434    3.6478    0.0000 H   0  0  0  0  0  0  0  0  0  0  0  0
    1.4041    1.8107    0.0000 H   0  0  0  0  0  0  0  0  0  0  0  0
   -2.4438   -0.2525    0.0000 H   0  0  0  0  0  0  0  0  0  0  0  0
   -3.3673    1.3469    0.0000 H   0  0  0  0  0  0  0  0  0  0  0  0
   -1.8675   -1.1886    0.0000 H   0  0  0  0  0  0  0  0  0  0  0  0
   -0.8842   -3.3086    0.0000 H   0  0  0  0  0  0  0  0  0  0  0  0
  1  2  1  0
  2  3  1  0
  2  4  1  0
  4  5  1  0
  5  6  1  0
  6  7  1  0
  7  8  1  0
  7  9  1  0
  9 10  1  0
 10 11  1  0
  8  5  1  0
 10  7  1  0
  1 12  1  0
  1 13  1  0
  1 14  1  0
  2 15  1  0
  3 16  1  0
  3 17  1  0
  3 18  1  0
  4 19  1  0
  4 20  1  0
  5 21  1  0
  6 22  1  0
  6 23  1  0
  8 24  1  0
  8 25  1  0
 10 26  1  0
 11 27  1  0
M  END
$$$$
