
     RDKit          2D

 36 37  0  0  0  0  0  0  0  0999 V2000
   -7.2892    4.1400    0.0000 C   0  0  0  0  0  0  0  0  0  0  0  0
   -6.2286    5.2007    0.0000 C   0  0  0  0  0  0  0  0  0  0  0  0
   -4.7797    4.8125    0.0000 C   0  0  0  0  0  0  0  0  0  0  0  0
   -3.3308    4.4242    0.0000 C   0  0  0  0  0  0  0  0  0  0  0  0
   -2.2701    5.4849    0.0000 C   0  0  0  0  0  0  0  0  0  0  0  0
   -2.9426    2.9753    0.0000 C   0  0  0  0  0  0  0  0  0  0  0  0
   -1.4937    2.5871    0.0000 C   0  0  0  0  0  0  0  0  0  0  0  0
   -0.0448    2.1989    0.0000 C   0  0  0  0  0  0  0  0  0  0  0  0
   -0.4330    0.7500    0.0000 C   0  0  0  0  0  0  0  0  0  0  0  0
    0.8660    0.0000    0.0000 C   0  0  0  0  0  0  0  0  0  0  0  0
   -0.4330   -0.7500    0.0000 C   0  0  0  0  0  0  0  0  0  0  0  0
   -1.8819    1.1382    0.0000 C   0  0  0  0  0  0  0  0  0  0  0  0
   -2.2701   -0.3107    0.0000 C   0  0  0  0  0  0  0  0  0  0  0  0
   -2.6584   -1.7595    0.0000 C   0  0  0  0  0  0  0  0  0  0  0  0
   -8.7381    4.5283    0.0000 H   0  0  0  0  0  0  0  0  0  0  0  0
   -6.9010    2.6911    0.0000 H   0  0  0  0  0  0  0  0  0  0  0  0
   -6.6168    6.6496    0.0000 H   0  0  0  0  0  0  0  0  0  0  0  0
   -5.1679    3.3636    0.0000 H   0  0  0  0  0  0  0  0  0  0  0  0
   -4.3915    6.2614    0.0000 H   0  0  0  0  0  0  0  0  0  0  0  0
   -1.2095    6.5456    0.0000 H   0  0  0  0  0  0  0  0  0  0  0  0
   -3.3308    6.5456    0.0000 H   0  0  0  0  0  0  0  0  0  0  0  0
   -1.3127    4.7369    0.0000 H   0  0  0  0  0  0  0  0  0  0  0  0
   -4.1246    2.0519    0.0000 H   0  0  0  0  0  0  0  0  0  0  0  0
   -1.0385    3.7136    0.0000 H   0  0  0  0  0  0  0  0  0  0  0  0
    0.3434    3.6478    0.0000 H   0  0  0  0  0  0  0  0  0  0  0  0
    1.4406    1.9902    0.0000 H   0  0  0  0  0  0  0  0  0  0  0  0
    1.9631    1.0230    0.0000 H   0  0  0  0  0  0  0  0  0  0  0  0
    1.8302   -1.1491    0.0000 H   0  0  0  0  0  0  0  0  0  0  0  0
    0.0800   -2.1595    0.0000 H   0  0  0  0  0  0  0  0  0  0  0  0
   -1.4320   -1.1948    0.0000 H   0  0  0  0  0  0  0  0  0  0  0  0
   -3.3673    1.3469    0.0000 H   0  0  0  0  0  0  0  0  0  0  0  0
   -3.7190    0.0776    0.0000 H   0  0  0  0  0  0  0  0  0  0  0  0
   -1.5729   -0.6972    0.0000 H   0  0  0  0  0  0  0  0  0  0  0  0
   -3.0466   -3.2084    0.0000 H   0  0  0  0  0  0  0  0  0  0  0  0
   -4.1072   -1.3713    0.0000 H   0  0  0  0  0  0  0  0  0  0  0  0
   -1.2095   -2.1478    0.0000 H   0  0  0  0  0  0  0  0  0  0  0  0
  1  2  2  3
  2  3  1  0
  3  4  1  0
  4  5  1  0
  4  6  2  3
  6  7  1  0
  7  8  1  0
  8  9  1  0
  9 10  1  0
 10 11  1  0
  9 12  1  0
 12 13  1  0
 13 14  1  0
 12  7  1  0
 11  9  1  0
  1 15  1  0
  1 16  1  0
  2 17  1  0
  3 18  1  0
  3 19  1  0
  5 20  1  0
  5 21  1  0
  5 22  1  0
  6 23  1  0
  7 24  1  1
  8 25  1  0
  8 26  1  0
 10 27  1  0
 10 28  1  0
 11 29  1  0
 11 30  1  0
 12 31  1  6
 13 32  1  0
 13 33  1  0
 14 34  1  0
 14 35  1  0
 14 36  1  0
M  END
$$$$
