
     RDKit          2D

 36 38  0  0  0  0  0  0  0  0999 V2000
    3.6423    2.5105    0.0000 C   0  0  0  0  0  0  0  0  0  0  0  0
    2.3432    3.2605    0.0000 C   0  0  0  0  0  0  0  0  0  0  0  0
    1.0442    2.5105    0.0000 C   0  0  0  0  0  0  0  0  0  0  0  0
    0.0800    3.6595    0.0000 C   0  0  0  0  0  0  0  0  0  0  0  0
   -1.2190    4.4095    0.0000 C   0  0  0  0  0  0  0  0  0  0  0  0
   -2.5181    5.1595    0.0000 C   0  0  0  0  0  0  0  0  0  0  0  0
   -3.8171    5.9095    0.0000 C   0  0  0  0  0  0  0  0  0  0  0  0
   -1.7681    6.4586    0.0000 C   0  0  0  0  0  0  0  0  0  0  0  0
   -1.0181    7.7576    0.0000 C   0  0  0  0  0  0  0  0  0  0  0  0
   -0.4330    2.2500    0.0000 C   0  0  0  0  0  0  0  0  0  0  0  0
   -0.4330    0.7500    0.0000 C   0  0  0  0  0  0  0  0  0  0  0  0
    0.8660    0.0000    0.0000 C   0  0  0  0  0  0  0  0  0  0  0  0
   -0.4330   -0.7500    0.0000 C   0  0  0  0  0  0  0  0  0  0  0  0
   -1.7321    0.0000    0.0000 C   0  0  0  0  0  0  0  0  0  0  0  0
    4.9413    3.2605    0.0000 H   0  0  0  0  0  0  0  0  0  0  0  0
    3.6423    1.0105    0.0000 H   0  0  0  0  0  0  0  0  0  0  0  0
    2.3432    4.7605    0.0000 H   0  0  0  0  0  0  0  0  0  0  0  0
    1.4910    1.6336    0.0000 H   0  0  0  0  0  0  0  0  0  0  0  0
    1.0442    4.8086    0.0000 H   0  0  0  0  0  0  0  0  0  0  0  0
   -0.6860    5.1169    0.0000 H   0  0  0  0  0  0  0  0  0  0  0  0
   -2.0315    3.3314    0.0000 H   0  0  0  0  0  0  0  0  0  0  0  0
   -3.2681    3.8605    0.0000 H   0  0  0  0  0  0  0  0  0  0  0  0
   -5.1161    6.6595    0.0000 H   0  0  0  0  0  0  0  0  0  0  0  0
   -4.5671    4.6105    0.0000 H   0  0  0  0  0  0  0  0  0  0  0  0
   -3.4710    6.7249    0.0000 H   0  0  0  0  0  0  0  0  0  0  0  0
   -0.9527    6.1125    0.0000 H   0  0  0  0  0  0  0  0  0  0  0  0
   -2.4754    6.9916    0.0000 H   0  0  0  0  0  0  0  0  0  0  0  0
   -0.2681    9.0567    0.0000 H   0  0  0  0  0  0  0  0  0  0  0  0
    0.2810    7.0076    0.0000 H   0  0  0  0  0  0  0  0  0  0  0  0
   -2.3171    8.5076    0.0000 H   0  0  0  0  0  0  0  0  0  0  0  0
   -1.7812    2.3206    0.0000 H   0  0  0  0  0  0  0  0  0  0  0  0
    1.5858    0.6712    0.0000 H   0  0  0  0  0  0  0  0  0  0  0  0
    1.8302   -1.1491    0.0000 H   0  0  0  0  0  0  0  0  0  0  0  0
   -0.4330   -2.2500    0.0000 H   0  0  0  0  0  0  0  0  0  0  0  0
   -2.6962   -1.1491    0.0000 H   0  0  0  0  0  0  0  0  0  0  0  0
   -2.6962    1.1491    0.0000 H   0  0  0  0  0  0  0  0  0  0  0  0
  1  2  2  3
  2  3  1  0
  3  4  1  0
  4  5  1  0
  5  6  1  0
  6  7  1  0
  6  8  1  0
  8  9  1  0
  4 10  1  0
 10 11  1  0
 11 12  1  0
 12 13  1  0
 13 14  1  0
 10  3  1  0
 13 11  1  0
 14 11  1  0
  1 15  1  0
  1 16  1  0
  2 17  1  0
  3 18  1  0
  4 19  1  0
  5 20  1  0
  5 21  1  0
  6 22  1  0
  7 23  1  0
  7 24  1  0
  7 25  1  0
  8 26  1  0
  8 27  1  0
  9 28  1  0
  9 29  1  0
  9 30  1  0
 10 31  1  0
 12 32  1  0
 12 33  1  0
 13 34  1  0
 14 35  1  0
 14 36  1  0
M  END
$$$$
