
     RDKit          2D

 78 87  0  0  0  0  0  0  0  0999 V2000
    1.8121    2.7910    0.0000 C   0  0  0  0  0  0  0  0  0  0  0  0
    2.8541    1.7120    0.0000 C   0  0  0  0  0  0  0  0  0  0  0  0
    3.8961    0.6330    0.0000 C   0  0  0  0  0  0  0  0  0  0  0  0
    4.9381   -0.4460    0.0000 C   0  0  0  0  0  0  0  0  0  0  0  0
    5.9801   -1.5250    0.0000 C   0  0  0  0  0  0  0  0  0  0  0  0
    4.4837   -1.4204    0.0000 C   0  0  0  0  0  0  0  0  0  0  0  0
    3.6449   -2.6640    0.0000 C   0  0  0  0  0  0  0  0  0  0  0  0
    5.1413   -2.7686    0.0000 C   0  0  0  0  0  0  0  0  0  0  0  0
    4.3025   -4.0122    0.0000 C   0  0  0  0  0  0  0  0  0  0  0  0
    3.2235   -5.0541    0.0000 C   0  0  0  0  0  0  0  0  0  0  0  0
    1.8991   -4.3499    0.0000 C   0  0  0  0  0  0  0  0  0  0  0  0
    0.7500   -5.3141    0.0000 C   0  0  0  0  0  0  0  0  0  0  0  0
   -0.7500   -5.3141    0.0000 C   0  0  0  0  0  0  0  0  0  0  0  0
   -1.8991   -4.3499    0.0000 C   0  0  0  0  0  0  0  0  0  0  0  0
   -2.1595   -2.8727    0.0000 C   0  0  0  0  0  0  0  0  0  0  0  0
   -1.4095   -1.5737    0.0000 O   0  0  0  0  0  0  0  0  0  0  0  0
   -0.0000   -1.0607    0.0000 C   0  0  0  0  0  0  0  0  0  0  0  0
    1.0607    0.0000    0.0000 O   0  0  0  0  0  0  0  0  0  0  0  0
    0.0000    1.0607    0.0000 C   0  0  0  0  0  0  0  0  0  0  0  0
   -1.0607    2.1213    0.0000 C   0  0  0  0  0  0  0  0  0  0  0  0
   -2.1213    1.0607    0.0000 N   0  0  0  0  0  0  0  0  0  0  0  0
   -1.0607    0.0000    0.0000 C   0  0  0  0  0  0  0  0  0  0  0  0
    1.4095   -1.5737    0.0000 O   0  0  0  0  0  0  0  0  0  0  0  0
    2.1595   -2.8727    0.0000 C   0  0  0  0  0  0  0  0  0  0  0  0
    5.7988   -4.1168    0.0000 C   0  0  0  0  0  0  0  0  0  0  0  0
    7.1692   -4.7269    0.0000 C   0  0  0  0  0  0  0  0  0  0  0  0
    6.6376   -2.8732    0.0000 C   0  0  0  0  0  0  0  0  0  0  0  0
    8.1230   -2.6645    0.0000 C   0  0  0  0  0  0  0  0  0  0  0  0
    8.3835   -1.1873    0.0000 O   0  0  0  0  0  0  0  0  0  0  0  0
    7.0591   -0.4831    0.0000 C   0  0  0  0  0  0  0  0  0  0  0  0
    7.4725    0.9588    0.0000 C   0  0  0  0  0  0  0  0  0  0  0  0
    7.5772    2.4552    0.0000 C   0  0  0  0  0  0  0  0  0  0  0  0
    6.1864    3.0171    0.0000 C   0  0  0  0  0  0  0  0  0  0  0  0
    5.2222    1.8680    0.0000 C   0  0  0  0  0  0  0  0  0  0  0  0
    6.0171    0.5960    0.0000 C   0  0  0  0  0  0  0  0  0  0  0  0
    0.7701    3.8700    0.0000 H   0  0  0  0  0  0  0  0  0  0  0  0
    0.6141    1.8883    0.0000 H   0  0  0  0  0  0  0  0  0  0  0  0
    2.8911    3.8330    0.0000 H   0  0  0  0  0  0  0  0  0  0  0  0
    3.7981    2.8777    0.0000 H   0  0  0  0  0  0  0  0  0  0  0  0
    1.7751    0.6700    0.0000 H   0  0  0  0  0  0  0  0  0  0  0  0
    4.4755    1.5603    0.0000 H   0  0  0  0  0  0  0  0  0  0  0  0
    2.9257   -0.0982    0.0000 H   0  0  0  0  0  0  0  0  0  0  0  0
    4.2477   -0.8446    0.0000 H   0  0  0  0  0  0  0  0  0  0  0  0
    3.4848   -0.9756    0.0000 H   0  0  0  0  0  0  0  0  0  0  0  0
    4.4836    0.0796    0.0000 H   0  0  0  0  0  0  0  0  0  0  0  0
    5.8456   -1.4442    0.0000 H   0  0  0  0  0  0  0  0  0  0  0  0
    6.6185   -3.0290    0.0000 H   0  0  0  0  0  0  0  0  0  0  0  0
    4.3726   -6.0183    0.0000 H   0  0  0  0  0  0  0  0  0  0  0  0
    2.7105   -6.4637    0.0000 H   0  0  0  0  0  0  0  0  0  0  0  0
    2.0559   -5.8417    0.0000 H   0  0  0  0  0  0  0  0  0  0  0  0
    1.7665   -6.4171    0.0000 H   0  0  0  0  0  0  0  0  0  0  0  0
    0.4982   -6.7928    0.0000 H   0  0  0  0  0  0  0  0  0  0  0  0
   -0.4982   -6.7928    0.0000 H   0  0  0  0  0  0  0  0  0  0  0  0
   -1.8934   -6.2850    0.0000 H   0  0  0  0  0  0  0  0  0  0  0  0
   -2.6566   -5.6446    0.0000 H   0  0  0  0  0  0  0  0  0  0  0  0
   -3.3990   -4.3587    0.0000 H   0  0  0  0  0  0  0  0  0  0  0  0
   -3.5721   -3.3775    0.0000 H   0  0  0  0  0  0  0  0  0  0  0  0
   -3.1889   -1.7817    0.0000 H   0  0  0  0  0  0  0  0  0  0  0  0
    0.9235    2.2427    0.0000 H   0  0  0  0  0  0  0  0  0  0  0  0
   -2.1213    3.1820    0.0000 H   0  0  0  0  0  0  0  0  0  0  0  0
   -0.0000    3.1820    0.0000 H   0  0  0  0  0  0  0  0  0  0  0  0
   -3.6213    1.0607    0.0000 H   0  0  0  0  0  0  0  0  0  0  0  0
   -2.3465   -0.7725    0.0000 H   0  0  0  0  0  0  0  0  0  0  0  0
    2.6479   -1.4544    0.0000 H   0  0  0  0  0  0  0  0  0  0  0  0
    5.4360   -5.5722    0.0000 H   0  0  0  0  0  0  0  0  0  0  0  0
    8.5395   -5.3370    0.0000 H   0  0  0  0  0  0  0  0  0  0  0  0
    6.5591   -6.0972    0.0000 H   0  0  0  0  0  0  0  0  0  0  0  0
    8.3513   -3.8035    0.0000 H   0  0  0  0  0  0  0  0  0  0  0  0
    7.7167   -3.9152    0.0000 H   0  0  0  0  0  0  0  0  0  0  0  0
    8.5366   -4.1063    0.0000 H   0  0  0  0  0  0  0  0  0  0  0  0
    9.6194   -2.7691    0.0000 H   0  0  0  0  0  0  0  0  0  0  0  0
    8.9498    0.6984    0.0000 H   0  0  0  0  0  0  0  0  0  0  0  0
    9.0544    2.1947    0.0000 H   0  0  0  0  0  0  0  0  0  0  0  0
    7.9906    3.8971    0.0000 H   0  0  0  0  0  0  0  0  0  0  0  0
    6.8906    4.3415    0.0000 H   0  0  0  0  0  0  0  0  0  0  0  0
    4.9428    3.8559    0.0000 H   0  0  0  0  0  0  0  0  0  0  0  0
    4.3195    3.0660    0.0000 H   0  0  0  0  0  0  0  0  0  0  0  0
    3.8519    1.2580    0.0000 H   0  0  0  0  0  0  0  0  0  0  0  0
  1  2  1  0
  2  3  1  0
  3  4  1  0
  4  5  1  0
  5  6  1  0
  6  7  1  0
  7  8  1  0
  8  9  1  0
  9 10  1  0
 10 11  1  0
 11 12  1  0
 12 13  1  0
 13 14  1  0
 14 15  1  0
 15 16  1  0
 16 17  1  0
 17 18  1  0
 18 19  1  0
 19 20  1  0
 20 21  1  0
 21 22  1  0
 17 23  1  0
 23 24  1  0
  9 25  1  0
 25 26  1  0
 25 27  1  0
 27 28  1  0
 28 29  1  0
 29 30  1  0
 30 31  1  0
 31 32  1  0
 32 33  1  0
 33 34  1  0
 34 35  1  0
 35  4  1  0
 27  5  1  0
 35 30  1  0
 30  5  1  0
 35 31  1  0
  9  7  1  0
 24 11  1  0
 24  7  1  0
 22 17  1  0
 22 19  1  0
  1 36  1  0
  1 37  1  0
  1 38  1  0
  2 39  1  0
  2 40  1  0
  3 41  1  0
  3 42  1  0
  4 43  1  0
  6 44  1  0
  6 45  1  0
  8 46  1  0
  8 47  1  0
 10 48  1  0
 10 49  1  0
 11 50  1  0
 12 51  1  0
 12 52  1  0
 13 53  1  0
 13 54  1  0
 14 55  1  0
 14 56  1  0
 15 57  1  0
 15 58  1  0
 19 59  1  0
 20 60  1  0
 20 61  1  0
 21 62  1  0
 22 63  1  0
 24 64  1  0
 25 65  1  0
 26 66  1  0
 26 67  1  0
 26 68  1  0
 27 69  1  0
 28 70  1  0
 28 71  1  0
 31 72  1  0
 32 73  1  0
 32 74  1  0
 33 75  1  0
 33 76  1  0
 34 77  1  0
 34 78  1  0
M  END
$$$$
