
     RDKit          3D

 37 42  0  0  0  0  0  0  0  0999 V2000
   19.7972  -24.3401  -18.1027 F   0  0  0  0  0  0  0  0  0  0  0  0
   20.9479  -24.0072  -18.7996 C   0  0  0  0  0  0  0  0  0  0  0  0
   21.0726  -22.5017  -19.0652 C   0  0  0  0  0  0  0  0  0  0  0  0
   22.4977  -21.9007  -18.7854 C   0  0  0  0  0  0  0  0  0  0  0  0
   23.6983  -22.8492  -18.5179 C   0  0  0  0  0  0  0  0  0  0  0  0
   20.6170  -23.4674  -20.1747 C   0  0  0  0  0  0  0  0  0  0  0  0
   23.5543  -23.6924  -17.3149 N   0  0  0  0  0  0  0  0  0  0  0  0
   22.9404  -23.2611  -16.0909 C   0  0  0  0  0  0  0  0  0  0  0  0
   22.8242  -20.5869  -19.5760 C   0  0  0  0  0  0  0  0  0  0  0  0
   20.8530  -23.7525  -22.6472 C   0  0  0  0  0  0  0  0  0  0  0  0
   20.5674  -22.2946  -23.1265 C   0  0  0  0  0  0  0  0  0  0  0  0
   20.2074  -21.1905  -22.1567 C   0  0  0  0  0  0  0  0  0  0  0  0
   21.6871  -23.3693  -15.9697 O   0  0  0  0  0  0  0  0  0  0  0  0
   17.9595  -20.9761  -20.8995 C   0  0  0  0  0  0  0  0  0  0  0  0
   18.1519  -19.8418  -19.8913 C   0  0  0  0  0  0  0  0  0  0  0  0
   23.1926  -19.2129  -21.6505 C   0  0  0  0  0  0  0  0  0  0  0  0
   19.0852  -21.9009  -23.0125 C   0  0  0  0  0  0  0  0  0  0  0  0
   24.9735  -21.0421  -21.0643 C   0  0  0  0  0  0  0  0  0  0  0  0
   23.7873  -22.7645  -14.9435 C   0  0  0  0  0  0  0  0  0  0  0  0
   18.7817  -20.6919  -22.1667 C   0  0  0  0  0  0  0  0  0  0  0  0
   25.9861  -20.0883  -21.7197 C   0  0  0  0  0  0  0  0  0  0  0  0
   23.4479  -20.6067  -21.0243 C   0  0  0  0  0  0  0  0  0  0  0  0
   21.5624  -23.9106  -21.2910 C   0  0  0  0  0  0  0  0  0  0  0  0
   23.2165  -21.4951  -14.3947 N   0  0  0  0  0  0  0  0  0  0  0  0
   25.1987  -22.3885  -21.7648 C   0  0  0  0  0  0  0  0  0  0  0  0
   23.1351  -21.3525  -12.9221 C   0  0  0  0  0  0  0  0  0  0  0  0
   27.0803  -20.9269  -22.3727 C   0  0  0  0  0  0  0  0  0  0  0  0
   24.1282  -23.9085  -13.9437 C   0  0  0  0  0  0  0  0  0  0  0  0
   27.8531  -22.0829  -21.7296 C   0  0  0  0  0  0  0  0  0  0  0  0
   27.9192  -22.3504  -20.2037 C   0  0  0  0  0  0  0  0  0  0  0  0
   28.8280  -21.3738  -19.4178 C   0  0  0  0  0  0  0  0  0  0  0  0
   28.1313  -20.0739  -19.1233 C   0  0  0  0  0  0  0  0  0  0  0  0
   30.0938  -21.0950  -20.1143 N   0  0  0  0  0  0  0  0  0  0  0  0
   24.8470  -25.0839  -14.6123 C   0  0  0  0  0  0  0  0  0  0  0  0
   26.5493  -22.3592  -22.4677 C   0  0  0  0  0  0  0  0  0  0  0  0
   27.3370  -20.0146  -18.0284 C   0  0  0  0  0  0  0  0  0  0  0  0
   21.9290  -21.6761  -13.6673 C   0  0  0  0  0  0  0  0  0  0  0  0
  2  1  1  0
  3  2  1  0
  4  3  1  0
  5  4  1  0
  6  2  1  0
  6  3  1  0
  7  5  1  0
  8  7  1  0
  9  4  1  0
 11 10  1  0
 12 11  1  0
 13  8  2  0
 15 14  1  0
 17 11  1  0
 17 12  1  0
 19  8  1  0
 20 12  1  0
 20 14  1  0
 20 17  1  0
 21 18  1  0
 22  9  1  0
 22 16  1  0
 22 18  1  0
 23  6  1  0
 23 10  1  0
 24 19  1  0
 25 18  1  0
 26 24  1  0
 27 21  1  0
 28 19  1  0
 29 27  1  0
 30 29  1  0
 31 30  1  0
 32 31  1  0
 33 31  1  0
 34 28  1  0
 35 25  1  0
 35 27  1  0
 35 29  1  0
 36 32  2  0
 37 24  1  0
 37 26  1  0
M  END
$$$$
