
     RDKit          2D

 35 36  0  0  0  0  0  0  0  0999 V2000
    5.1530    6.1119    0.0000 C   0  0  0  0  0  0  0  0  0  0  0  0
    3.8540    5.3619    0.0000 C   0  0  0  0  0  0  0  0  0  0  0  0
    2.5550    4.6119    0.0000 C   0  0  0  0  0  0  0  0  0  0  0  0
    1.5908    5.7610    0.0000 C   0  0  0  0  0  0  0  0  0  0  0  0
    1.0777    4.3515    0.0000 C   0  0  0  0  0  0  0  0  0  0  0  0
    1.0777    2.8515    0.0000 C   0  0  0  0  0  0  0  0  0  0  0  0
    1.0777    1.3515    0.0000 C   0  0  0  0  0  0  0  0  0  0  0  0
    1.7286    0.0000    0.0000 C   0  0  0  0  0  0  0  0  0  0  0  0
    1.0777   -1.3515    0.0000 C   0  0  0  0  0  0  0  0  0  0  0  0
   -0.3846   -1.6852    0.0000 C   0  0  0  0  0  0  0  0  0  0  0  0
   -1.5574   -0.7500    0.0000 C   0  0  0  0  0  0  0  0  0  0  0  0
   -1.5574    0.7500    0.0000 C   0  0  0  0  0  0  0  0  0  0  0  0
   -0.3846    1.6852    0.0000 C   0  0  0  0  0  0  0  0  0  0  0  0
    6.4521    6.8619    0.0000 H   0  0  0  0  0  0  0  0  0  0  0  0
    5.9030    4.8129    0.0000 H   0  0  0  0  0  0  0  0  0  0  0  0
    4.4030    7.4110    0.0000 H   0  0  0  0  0  0  0  0  0  0  0  0
    3.3265    6.6046    0.0000 H   0  0  0  0  0  0  0  0  0  0  0  0
    4.6040    4.0629    0.0000 H   0  0  0  0  0  0  0  0  0  0  0  0
    3.1679    3.4091    0.0000 H   0  0  0  0  0  0  0  0  0  0  0  0
    0.2917    6.5110    0.0000 H   0  0  0  0  0  0  0  0  0  0  0  0
    2.3260    6.8932    0.0000 H   0  0  0  0  0  0  0  0  0  0  0  0
   -0.3995    4.6119    0.0000 H   0  0  0  0  0  0  0  0  0  0  0  0
    0.2865    2.9486    0.0000 H   0  0  0  0  0  0  0  0  0  0  0  0
    2.4177    2.6869    0.0000 H   0  0  0  0  0  0  0  0  0  0  0  0
    2.5401    1.6852    0.0000 H   0  0  0  0  0  0  0  0  0  0  0  0
    3.2286   -0.0000    0.0000 H   0  0  0  0  0  0  0  0  0  0  0  0
    2.0130   -2.5242    0.0000 H   0  0  0  0  0  0  0  0  0  0  0  0
    0.2662   -3.0367    0.0000 H   0  0  0  0  0  0  0  0  0  0  0  0
   -1.4346   -2.7564    0.0000 H   0  0  0  0  0  0  0  0  0  0  0  0
   -2.3681   -2.0120    0.0000 H   0  0  0  0  0  0  0  0  0  0  0  0
   -3.0496   -0.5970    0.0000 H   0  0  0  0  0  0  0  0  0  0  0  0
   -3.0496    0.5970    0.0000 H   0  0  0  0  0  0  0  0  0  0  0  0
   -2.3681    2.0120    0.0000 H   0  0  0  0  0  0  0  0  0  0  0  0
   -1.4346    2.7564    0.0000 H   0  0  0  0  0  0  0  0  0  0  0  0
   -0.1289    2.4403    0.0000 H   0  0  0  0  0  0  0  0  0  0  0  0
  1  2  1  0
  2  3  1  0
  3  4  1  0
  4  5  1  0
  5  6  1  0
  6  7  1  0
  7  8  1  0
  8  9  2  0
  9 10  1  0
 10 11  1  0
 11 12  1  0
 12 13  1  0
  5  3  1  0
 13  7  1  0
  1 14  1  0
  1 15  1  0
  1 16  1  0
  2 17  1  0
  2 18  1  0
  3 19  1  0
  4 20  1  0
  4 21  1  0
  5 22  1  0
  6 23  1  0
  6 24  1  0
  7 25  1  0
  8 26  1  0
  9 27  1  0
 10 28  1  0
 10 29  1  0
 11 30  1  0
 11 31  1  0
 12 32  1  0
 12 33  1  0
 13 34  1  0
 13 35  1  0
M  END
$$$$
