
     RDKit          2D

 52 56  0  0  0  0  0  0  0  0999 V2000
    3.1820    2.1213    0.0000 C   0  0  0  0  0  0  0  0  0  0  0  0
    2.1213    1.0607    0.0000 C   0  0  0  0  0  0  0  0  0  0  0  0
    1.0607    0.0000    0.0000 C   0  0  0  0  0  0  0  0  0  0  0  0
   -0.0000   -1.0607    0.0000 C   0  0  0  0  0  0  0  0  0  0  0  0
   -1.0607    0.0000    0.0000 C   0  0  0  0  0  0  0  0  0  0  0  0
   -2.1213    1.0607    0.0000 N   0  0  0  0  0  0  0  0  0  0  0  0
   -1.0607    2.1213    0.0000 C   0  0  0  0  0  0  0  0  0  0  0  0
    0.0000    3.1820    0.0000 C   0  0  0  0  0  0  0  0  0  0  0  0
    1.0607    4.2426    0.0000 C   0  0  0  0  0  0  0  0  0  0  0  0
    2.1213    5.3033    0.0000 C   0  0  0  0  0  0  0  0  0  0  0  0
    3.1820    6.3640    0.0000 C   0  0  0  0  0  0  0  0  0  0  0  0
    4.2426    7.4246    0.0000 C   0  0  0  0  0  0  0  0  0  0  0  0
    5.3033    8.4853    0.0000 C   0  0  0  0  0  0  0  0  0  0  0  0
    6.3640    7.4246    0.0000 C   0  0  0  0  0  0  0  0  0  0  0  0
    7.4246    8.4853    0.0000 O   0  0  0  0  0  0  0  0  0  0  0  0
    6.3640    9.5459    0.0000 C   0  0  0  0  0  0  0  0  0  0  0  0
    5.3033   10.6066    0.0000 N   0  0  0  0  0  0  0  0  0  0  0  0
    3.8544   10.9948    0.0000 C   0  0  0  0  0  0  0  0  0  0  0  0
    3.4662   12.4437    0.0000 C   0  0  0  0  0  0  0  0  0  0  0  0
    4.9151   12.0555    0.0000 C   0  0  0  0  0  0  0  0  0  0  0  0
    5.9757   13.1162    0.0000 O   0  0  0  0  0  0  0  0  0  0  0  0
    0.0000    1.0607    0.0000 C   0  0  0  0  0  0  0  0  0  0  0  0
    4.2426    3.1820    0.0000 H   0  0  0  0  0  0  0  0  0  0  0  0
    4.2426    1.0607    0.0000 H   0  0  0  0  0  0  0  0  0  0  0  0
    1.9999    3.0448    0.0000 H   0  0  0  0  0  0  0  0  0  0  0  0
    1.1979    2.2427    0.0000 H   0  0  0  0  0  0  0  0  0  0  0  0
    3.1820    0.0000    0.0000 H   0  0  0  0  0  0  0  0  0  0  0  0
    2.1213   -1.0607    0.0000 H   0  0  0  0  0  0  0  0  0  0  0  0
    1.0607   -2.1213    0.0000 H   0  0  0  0  0  0  0  0  0  0  0  0
   -1.0607   -2.1213    0.0000 H   0  0  0  0  0  0  0  0  0  0  0  0
   -2.1213   -1.0607    0.0000 H   0  0  0  0  0  0  0  0  0  0  0  0
   -3.6213    1.0607    0.0000 H   0  0  0  0  0  0  0  0  0  0  0  0
   -2.1213    3.1820    0.0000 H   0  0  0  0  0  0  0  0  0  0  0  0
   -0.4908    3.8102    0.0000 H   0  0  0  0  0  0  0  0  0  0  0  0
   -0.6282    3.6727    0.0000 H   0  0  0  0  0  0  0  0  0  0  0  0
    0.0000    5.3033    0.0000 H   0  0  0  0  0  0  0  0  0  0  0  0
    1.9841    3.0606    0.0000 H   0  0  0  0  0  0  0  0  0  0  0  0
    1.0607    6.3640    0.0000 H   0  0  0  0  0  0  0  0  0  0  0  0
    3.1820    4.2426    0.0000 H   0  0  0  0  0  0  0  0  0  0  0  0
    4.2426    5.3033    0.0000 H   0  0  0  0  0  0  0  0  0  0  0  0
    2.1213    7.4246    0.0000 H   0  0  0  0  0  0  0  0  0  0  0  0
    3.1820    8.4853    0.0000 H   0  0  0  0  0  0  0  0  0  0  0  0
    5.1661    6.2426    0.0000 H   0  0  0  0  0  0  0  0  0  0  0  0
    4.2426    9.5459    0.0000 H   0  0  0  0  0  0  0  0  0  0  0  0
    7.4246    6.3640    0.0000 H   0  0  0  0  0  0  0  0  0  0  0  0
    5.4405    6.2426    0.0000 H   0  0  0  0  0  0  0  0  0  0  0  0
    7.4246   10.6066    0.0000 H   0  0  0  0  0  0  0  0  0  0  0  0
    2.7938    9.9342    0.0000 H   0  0  0  0  0  0  0  0  0  0  0  0
    1.9719   12.3130    0.0000 H   0  0  0  0  0  0  0  0  0  0  0  0
    3.5969   13.9380    0.0000 H   0  0  0  0  0  0  0  0  0  0  0  0
    7.4246   12.7279    0.0000 H   0  0  0  0  0  0  0  0  0  0  0  0
    0.9235    2.2427    0.0000 H   0  0  0  0  0  0  0  0  0  0  0  0
  1  2  1  0
  2  3  1  0
  3  4  1  0
  4  5  1  0
  5  6  1  0
  6  7  1  0
  7  8  1  0
  8  9  1  0
  9 10  1  0
 10 11  1  0
 11 12  1  0
 12 13  1  0
 13 14  1  0
 14 15  1  0
 15 16  1  0
 16 17  1  0
 17 18  1  0
 18 19  1  0
 19 20  1  0
 20 21  1  0
  7 22  1  0
 22  3  1  0
 22  5  1  0
 16 13  1  0
 20 17  1  0
 20 18  1  0
  1 23  1  0
  1 24  1  0
  1 25  1  0
  2 26  1  0
  2 27  1  0
  3 28  1  0
  4 29  1  0
  4 30  1  0
  5 31  1  0
  6 32  1  0
  7 33  1  0
  8 34  1  0
  8 35  1  0
  9 36  1  0
  9 37  1  0
 10 38  1  0
 10 39  1  0
 11 40  1  0
 11 41  1  0
 12 42  1  0
 12 43  1  0
 13 44  1  0
 14 45  1  0
 14 46  1  0
 16 47  1  0
 18 48  1  0
 19 49  1  0
 19 50  1  0
 21 51  1  0
 22 52  1  0
M  END
$$$$
