
     RDKit          2D

 56 60  0  0  0  0  0  0  0  0999 V2000
    0.1424    1.1983    0.0000 C   0  0  0  0  0  0  0  0  0  0  0  0
    1.1208    0.0613    0.0000 C   0  0  0  0  0  0  0  0  0  0  0  0
    0.1710   -1.0997    0.0000 C   0  0  0  0  0  0  0  0  0  0  0  0
   -0.3244   -2.5155    0.0000 C   0  0  0  0  0  0  0  0  0  0  0  0
   -0.8198   -3.9313    0.0000 C   0  0  0  0  0  0  0  0  0  0  0  0
   -1.3152   -5.3472    0.0000 C   0  0  0  0  0  0  0  0  0  0  0  0
   -1.8107   -6.7630    0.0000 C   0  0  0  0  0  0  0  0  0  0  0  0
   -2.3061   -8.1788    0.0000 C   0  0  0  0  0  0  0  0  0  0  0  0
   -2.8015   -9.5946    0.0000 O   0  0  0  0  0  0  0  0  0  0  0  0
   -2.2356   -3.4359    0.0000 C   0  0  0  0  0  0  0  0  0  0  0  0
   -3.2963   -2.3753    0.0000 C   0  0  0  0  0  0  0  0  0  0  0  0
   -4.7869   -2.5432    0.0000 C   0  0  0  0  0  0  0  0  0  0  0  0
   -5.5849   -3.8133    0.0000 C   0  0  0  0  0  0  0  0  0  0  0  0
   -7.0755   -3.6453    0.0000 O   0  0  0  0  0  0  0  0  0  0  0  0
   -5.0895   -5.2291    0.0000 O   0  0  0  0  0  0  0  0  0  0  0  0
   -3.6737   -5.7245    0.0000 C   0  0  0  0  0  0  0  0  0  0  0  0
   -2.4036   -4.9265    0.0000 C   0  0  0  0  0  0  0  0  0  0  0  0
   -4.6089   -6.8973    0.0000 C   0  0  0  0  0  0  0  0  0  0  0  0
   -3.4362   -7.8325    0.0000 C   0  0  0  0  0  0  0  0  0  0  0  0
   -1.9529   -8.0561    0.0000 C   0  0  0  0  0  0  0  0  0  0  0  0
   -2.5009   -6.6598    0.0000 C   0  0  0  0  0  0  0  0  0  0  0  0
    1.6514   -1.3417    0.0000 C   0  0  0  0  0  0  0  0  0  0  0  0
    3.1317   -1.5838    0.0000 C   0  0  0  0  0  0  0  0  0  0  0  0
    2.1819   -2.7448    0.0000 C   0  0  0  0  0  0  0  0  0  0  0  0
   -0.8361    2.3352    0.0000 H   0  0  0  0  0  0  0  0  0  0  0  0
    1.2793    2.1767    0.0000 H   0  0  0  0  0  0  0  0  0  0  0  0
   -1.1054    0.3657    0.0000 H   0  0  0  0  0  0  0  0  0  0  0  0
    2.4104    0.8275    0.0000 H   0  0  0  0  0  0  0  0  0  0  0  0
   -1.2170   -0.5309    0.0000 H   0  0  0  0  0  0  0  0  0  0  0  0
   -1.5783   -1.6922    0.0000 H   0  0  0  0  0  0  0  0  0  0  0  0
    1.0205   -3.1798    0.0000 H   0  0  0  0  0  0  0  0  0  0  0  0
    0.5960   -4.4267    0.0000 H   0  0  0  0  0  0  0  0  0  0  0  0
    0.1006   -5.8426    0.0000 H   0  0  0  0  0  0  0  0  0  0  0  0
   -2.8089   -5.2091    0.0000 H   0  0  0  0  0  0  0  0  0  0  0  0
   -0.3450   -7.0821    0.0000 H   0  0  0  0  0  0  0  0  0  0  0  0
   -3.3043   -6.6249    0.0000 H   0  0  0  0  0  0  0  0  0  0  0  0
   -3.7997   -8.0407    0.0000 H   0  0  0  0  0  0  0  0  0  0  0  0
   -0.8902   -8.6742    0.0000 H   0  0  0  0  0  0  0  0  0  0  0  0
   -1.8231  -10.7316    0.0000 H   0  0  0  0  0  0  0  0  0  0  0  0
   -1.4376   -2.1658    0.0000 H   0  0  0  0  0  0  0  0  0  0  0  0
   -2.2571   -1.2936    0.0000 H   0  0  0  0  0  0  0  0  0  0  0  0
   -3.6154   -0.9096    0.0000 H   0  0  0  0  0  0  0  0  0  0  0  0
   -4.8019   -1.0433    0.0000 H   0  0  0  0  0  0  0  0  0  0  0  0
   -6.2027   -2.0478    0.0000 H   0  0  0  0  0  0  0  0  0  0  0  0
   -1.7393   -6.2714    0.0000 H   0  0  0  0  0  0  0  0  0  0  0  0
   -0.9167   -5.1242    0.0000 H   0  0  0  0  0  0  0  0  0  0  0  0
   -5.5441   -8.0700    0.0000 H   0  0  0  0  0  0  0  0  0  0  0  0
   -5.7817   -5.9620    0.0000 H   0  0  0  0  0  0  0  0  0  0  0  0
   -4.0360   -9.2074    0.0000 H   0  0  0  0  0  0  0  0  0  0  0  0
   -1.5538   -9.5020    0.0000 H   0  0  0  0  0  0  0  0  0  0  0  0
   -0.4574   -7.9403    0.0000 H   0  0  0  0  0  0  0  0  0  0  0  0
   -1.0550   -6.2608    0.0000 H   0  0  0  0  0  0  0  0  0  0  0  0
    3.6271   -0.1679    0.0000 H   0  0  0  0  0  0  0  0  0  0  0  0
    4.4400   -2.3175    0.0000 H   0  0  0  0  0  0  0  0  0  0  0  0
    3.1604   -3.8817    0.0000 H   0  0  0  0  0  0  0  0  0  0  0  0
    0.9953   -3.6624    0.0000 H   0  0  0  0  0  0  0  0  0  0  0  0
  1  2  1  0
  2  3  1  0
  3  4  1  0
  4  5  1  0
  5  6  1  0
  6  7  1  0
  7  8  1  0
  8  9  1  0
  5 10  1  0
 10 11  1  0
 11 12  1  0
 12 13  1  0
 13 14  2  0
 13 15  1  0
 15 16  1  0
 16 17  1  0
 16 18  1  0
 18 19  1  0
 19 20  1  0
 20 21  1  0
  3 22  1  0
 22 23  1  0
 23 24  1  0
 22  2  1  0
 17 10  1  0
 21 19  1  0
 24 22  1  0
 21 16  1  0
  1 25  1  0
  1 26  1  0
  1 27  1  0
  2 28  1  0
  3 29  1  0
  4 30  1  0
  4 31  1  0
  5 32  1  0
  6 33  1  0
  6 34  1  0
  7 35  1  0
  7 36  1  0
  8 37  1  0
  8 38  1  0
  9 39  1  0
 10 40  1  0
 11 41  1  0
 11 42  1  0
 12 43  1  0
 12 44  1  0
 17 45  1  0
 17 46  1  0
 18 47  1  0
 18 48  1  0
 19 49  1  0
 20 50  1  0
 20 51  1  0
 21 52  1  0
 23 53  1  0
 23 54  1  0
 24 55  1  0
 24 56  1  0
M  END
$$$$
