
     RDKit          2D

 94 97  0  0  0  0  0  0  0  0999 V2000
   -1.3565    5.5188    0.0000 C   0  0  0  0  0  0  0  0  0  0  0  0
   -1.6170    4.0416    0.0000 C   0  0  0  0  0  0  0  0  0  0  0  0
   -3.0265    3.5286    0.0000 C   0  0  0  0  0  0  0  0  0  0  0  0
   -2.5135    2.1190    0.0000 C   0  0  0  0  0  0  0  0  0  0  0  0
   -3.5396    4.9381    0.0000 C   0  0  0  0  0  0  0  0  0  0  0  0
   -4.9491    4.4251    0.0000 C   0  0  0  0  0  0  0  0  0  0  0  0
   -4.4361    3.0156    0.0000 C   0  0  0  0  0  0  0  0  0  0  0  0
   -0.4679    3.0774    0.0000 C   0  0  0  0  0  0  0  0  0  0  0  0
   -1.4321    1.9284    0.0000 N   0  0  0  0  0  0  0  0  0  0  0  0
    0.6811    2.1132    0.0000 C   0  0  0  0  0  0  0  0  0  0  0  0
    1.8302    1.1491    0.0000 C   0  0  0  0  0  0  0  0  0  0  0  0
    2.9793    0.1849    0.0000 C   0  0  0  0  0  0  0  0  0  0  0  0
    0.8660    0.0000    0.0000 C   0  0  0  0  0  0  0  0  0  0  0  0
    1.8302   -1.1491    0.0000 C   0  0  0  0  0  0  0  0  0  0  0  0
    2.0907   -2.6263    0.0000 C   0  0  0  0  0  0  0  0  0  0  0  0
    2.3512   -4.1035    0.0000 C   0  0  0  0  0  0  0  0  0  0  0  0
    2.6116   -5.5807    0.0000 C   0  0  0  0  0  0  0  0  0  0  0  0
    3.8284   -3.8430    0.0000 S   0  0  0  0  0  0  0  0  0  0  0  0
    0.6135   -2.8868    0.0000 C   0  0  0  0  0  0  0  0  0  0  0  0
   -0.8637   -3.1472    0.0000 N   0  0  0  0  0  0  0  0  0  0  0  0
   -1.8279   -1.9982    0.0000 C   0  0  0  0  0  0  0  0  0  0  0  0
   -1.3768   -4.5568    0.0000 C   0  0  0  0  0  0  0  0  0  0  0  0
    0.0328   -5.0698    0.0000 C   0  0  0  0  0  0  0  0  0  0  0  0
    1.4423   -5.5828    0.0000 C   0  0  0  0  0  0  0  0  0  0  0  0
   -2.7863   -4.0437    0.0000 C   0  0  0  0  0  0  0  0  0  0  0  0
   -4.1959   -3.5307    0.0000 C   0  0  0  0  0  0  0  0  0  0  0  0
   -3.2993   -5.4533    0.0000 C   0  0  0  0  0  0  0  0  0  0  0  0
   -4.7609   -5.1159    0.0000 I   0  0  0  0  0  0  0  0  0  0  0  0
   -3.8124   -6.8628    0.0000 C   0  0  0  0  0  0  0  0  0  0  0  0
   -4.3254   -8.2723    0.0000 N   0  0  0  0  0  0  0  0  0  0  0  0
    0.3530   -1.4095    0.0000 C   0  0  0  0  0  0  0  0  0  0  0  0
    0.4963    4.2265    0.0000 C   0  0  0  0  0  0  0  0  0  0  0  0
    1.4604    5.3756    0.0000 C   0  0  0  0  0  0  0  0  0  0  0  0
    0.3114    6.3397    0.0000 C   0  0  0  0  0  0  0  0  0  0  0  0
    2.6095    4.4114    0.0000 O   0  0  0  0  0  0  0  0  0  0  0  0
    3.5737    5.5604    0.0000 C   0  0  0  0  0  0  0  0  0  0  0  0
    2.4246    6.5246    0.0000 C   0  0  0  0  0  0  0  0  0  0  0  0
    1.2756    7.4888    0.0000 O   0  0  0  0  0  0  0  0  0  0  0  0
   -2.5056    6.4830    0.0000 H   0  0  0  0  0  0  0  0  0  0  0  0
   -0.5407    6.0692    0.0000 H   0  0  0  0  0  0  0  0  0  0  0  0
   -2.0005    0.7095    0.0000 H   0  0  0  0  0  0  0  0  0  0  0  0
   -1.7435    1.9126    0.0000 H   0  0  0  0  0  0  0  0  0  0  0  0
   -1.0137    2.0927    0.0000 H   0  0  0  0  0  0  0  0  0  0  0  0
   -4.0526    6.3477    0.0000 H   0  0  0  0  0  0  0  0  0  0  0  0
   -2.2961    5.7770    0.0000 H   0  0  0  0  0  0  0  0  0  0  0  0
   -6.3586    3.9121    0.0000 H   0  0  0  0  0  0  0  0  0  0  0  0
   -5.4621    5.8346    0.0000 H   0  0  0  0  0  0  0  0  0  0  0  0
   -3.9230    1.6060    0.0000 H   0  0  0  0  0  0  0  0  0  0  0  0
   -5.8456    2.5025    0.0000 H   0  0  0  0  0  0  0  0  0  0  0  0
   -2.9284    1.8236    0.0000 H   0  0  0  0  0  0  0  0  0  0  0  0
   -1.2754    0.4366    0.0000 H   0  0  0  0  0  0  0  0  0  0  0  0
   -0.2830    0.9642    0.0000 H   0  0  0  0  0  0  0  0  0  0  0  0
    1.8947    2.9949    0.0000 H   0  0  0  0  0  0  0  0  0  0  0  0
    2.7944    2.2981    0.0000 H   0  0  0  0  0  0  0  0  0  0  0  0
    4.1283   -0.7793    0.0000 H   0  0  0  0  0  0  0  0  0  0  0  0
    3.9435    1.3340    0.0000 H   0  0  0  0  0  0  0  0  0  0  0  0
    2.3218   -1.1633    0.0000 H   0  0  0  0  0  0  0  0  0  0  0  0
   -0.5759    0.4134    0.0000 H   0  0  0  0  0  0  0  0  0  0  0  0
    3.3027   -0.8629    0.0000 H   0  0  0  0  0  0  0  0  0  0  0  0
    3.5679   -2.3658    0.0000 H   0  0  0  0  0  0  0  0  0  0  0  0
    0.8739   -4.3640    0.0000 H   0  0  0  0  0  0  0  0  0  0  0  0
    2.8721   -7.0579    0.0000 H   0  0  0  0  0  0  0  0  0  0  0  0
    4.1096   -5.5022    0.0000 H   0  0  0  0  0  0  0  0  0  0  0  0
    1.2413   -6.1909    0.0000 H   0  0  0  0  0  0  0  0  0  0  0  0
    4.9254   -4.8660    0.0000 H   0  0  0  0  0  0  0  0  0  0  0  0
    0.8739   -4.3640    0.0000 H   0  0  0  0  0  0  0  0  0  0  0  0
   -2.7921   -0.8491    0.0000 H   0  0  0  0  0  0  0  0  0  0  0  0
   -3.0860   -2.8151    0.0000 H   0  0  0  0  0  0  0  0  0  0  0  0
   -0.8050   -0.9011    0.0000 H   0  0  0  0  0  0  0  0  0  0  0  0
   -1.7142   -6.0183    0.0000 H   0  0  0  0  0  0  0  0  0  0  0  0
   -0.4803   -6.4793    0.0000 H   0  0  0  0  0  0  0  0  0  0  0  0
    0.8716   -3.8263    0.0000 H   0  0  0  0  0  0  0  0  0  0  0  0
    2.6858   -6.4217    0.0000 H   0  0  0  0  0  0  0  0  0  0  0  0
    0.9293   -6.9924    0.0000 H   0  0  0  0  0  0  0  0  0  0  0  0
    2.2812   -4.3393    0.0000 H   0  0  0  0  0  0  0  0  0  0  0  0
   -2.8126   -2.5440    0.0000 H   0  0  0  0  0  0  0  0  0  0  0  0
   -5.6054   -3.0177    0.0000 H   0  0  0  0  0  0  0  0  0  0  0  0
   -4.8769   -4.8672    0.0000 H   0  0  0  0  0  0  0  0  0  0  0  0
   -3.6828   -2.1212    0.0000 H   0  0  0  0  0  0  0  0  0  0  0  0
   -1.9629   -6.1343    0.0000 H   0  0  0  0  0  0  0  0  0  0  0  0
   -5.2219   -6.3498    0.0000 H   0  0  0  0  0  0  0  0  0  0  0  0
   -2.4028   -7.3758    0.0000 H   0  0  0  0  0  0  0  0  0  0  0  0
   -3.3612   -9.4214    0.0000 H   0  0  0  0  0  0  0  0  0  0  0  0
   -5.8026   -8.5328    0.0000 H   0  0  0  0  0  0  0  0  0  0  0  0
   -1.1142   -1.0976    0.0000 H   0  0  0  0  0  0  0  0  0  0  0  0
    1.6453    3.2623    0.0000 H   0  0  0  0  0  0  0  0  0  0  0  0
    1.8445    3.5690    0.0000 H   0  0  0  0  0  0  0  0  0  0  0  0
   -0.8377    7.3039    0.0000 H   0  0  0  0  0  0  0  0  0  0  0  0
    0.9689    7.6880    0.0000 H   0  0  0  0  0  0  0  0  0  0  0  0
   -0.9022    5.4581    0.0000 H   0  0  0  0  0  0  0  0  0  0  0  0
    4.5379    6.7095    0.0000 H   0  0  0  0  0  0  0  0  0  0  0  0
    4.7228    4.5963    0.0000 H   0  0  0  0  0  0  0  0  0  0  0  0
    3.3888    7.6737    0.0000 H   0  0  0  0  0  0  0  0  0  0  0  0
    1.5360    8.9660    0.0000 H   0  0  0  0  0  0  0  0  0  0  0  0
  1  2  2  3
  2  3  1  0
  3  4  1  0
  3  5  1  0
  5  6  1  0
  6  7  1  0
  2  8  1  0
  8  9  1  0
  8 10  1  0
 10 11  1  0
 11 12  1  0
 11 13  1  0
 13 14  1  0
 14 15  1  0
 15 16  1  0
 16 17  1  0
 16 18  1  0
 15 19  1  0
 19 20  1  0
 20 21  1  0
 20 22  1  0
 22 23  1  0
 23 24  1  0
 22 25  1  0
 25 26  1  0
 25 27  1  0
 27 28  1  0
 27 29  1  0
 29 30  1  0
 19 31  1  0
  8 32  1  0
 32 33  1  0
 33 34  1  0
 33 35  1  0
 35 36  1  0
 36 37  1  0
 37 38  1  0
  7  3  1  0
 31 13  1  0
 37 33  1  0
 31 14  1  0
  1 39  1  0
  1 40  1  0
  4 41  1  0
  4 42  1  0
  4 43  1  0
  5 44  1  0
  5 45  1  0
  6 46  1  0
  6 47  1  0
  7 48  1  0
  7 49  1  0
  9 50  1  0
  9 51  1  0
 10 52  1  0
 10 53  1  0
 11 54  1  0
 12 55  1  0
 12 56  1  0
 12 57  1  0
 13 58  1  0
 14 59  1  0
 15 60  1  0
 16 61  1  0
 17 62  1  0
 17 63  1  0
 17 64  1  0
 18 65  1  0
 19 66  1  0
 21 67  1  0
 21 68  1  0
 21 69  1  0
 22 70  1  0
 23 71  1  0
 23 72  1  0
 24 73  1  0
 24 74  1  0
 24 75  1  0
 25 76  1  0
 26 77  1  0
 26 78  1  0
 26 79  1  0
 27 80  1  0
 29 81  1  0
 29 82  1  0
 30 83  1  0
 30 84  1  0
 31 85  1  0
 32 86  1  0
 32 87  1  0
 34 88  1  0
 34 89  1  0
 34 90  1  0
 36 91  1  0
 36 92  1  0
 37 93  1  0
 38 94  1  0
M  END
$$$$
