
     RDKit          2D

 30 33  0  0  0  0  0  0  0  0999 V2000
    6.1642   -0.0000    0.0000 C   0  0  0  0  0  0  0  0  0  0  0  0
    6.4246    1.4772    0.0000 C   0  0  0  0  0  0  0  0  0  0  0  0
    5.0151    0.9642    0.0000 C   0  0  0  0  0  0  0  0  0  0  0  0
    3.8660   -0.0000    0.0000 C   0  0  0  0  0  0  0  0  0  0  0  0
    3.1160    1.2990    0.0000 C   0  0  0  0  0  0  0  0  0  0  0  0
    1.6160    1.2990    0.0000 C   0  0  0  0  0  0  0  0  0  0  0  0
    0.8660    0.0000    0.0000 C   0  0  0  0  0  0  0  0  0  0  0  0
    1.6160   -1.2990    0.0000 C   0  0  0  0  0  0  0  0  0  0  0  0
    3.1160   -1.2990    0.0000 C   0  0  0  0  0  0  0  0  0  0  0  0
   -0.4330    0.7500    0.0000 C   0  0  0  0  0  0  0  0  0  0  0  0
   -1.7321    0.0000    0.0000 C   0  0  0  0  0  0  0  0  0  0  0  0
   -0.4330   -0.7500    0.0000 C   0  0  0  0  0  0  0  0  0  0  0  0
    7.5737   -0.5130    0.0000 H   0  0  0  0  0  0  0  0  0  0  0  0
    5.6895   -1.1184    0.0000 H   0  0  0  0  0  0  0  0  0  0  0  0
    6.1642    2.9544    0.0000 H   0  0  0  0  0  0  0  0  0  0  0  0
    7.9246    1.4772    0.0000 H   0  0  0  0  0  0  0  0  0  0  0  0
    4.7036    1.6980    0.0000 H   0  0  0  0  0  0  0  0  0  0  0  0
    4.6946   -0.8886    0.0000 H   0  0  0  0  0  0  0  0  0  0  0  0
    2.8556    2.7762    0.0000 H   0  0  0  0  0  0  0  0  0  0  0  0
    3.8263    1.6610    0.0000 H   0  0  0  0  0  0  0  0  0  0  0  0
    0.2795    1.9801    0.0000 H   0  0  0  0  0  0  0  0  0  0  0  0
    1.8765    2.7762    0.0000 H   0  0  0  0  0  0  0  0  0  0  0  0
    1.8765   -2.7762    0.0000 H   0  0  0  0  0  0  0  0  0  0  0  0
    0.2795   -1.9801    0.0000 H   0  0  0  0  0  0  0  0  0  0  0  0
    4.5256   -1.8121    0.0000 H   0  0  0  0  0  0  0  0  0  0  0  0
    2.8556   -2.7762    0.0000 H   0  0  0  0  0  0  0  0  0  0  0  0
   -0.6159    2.2388    0.0000 H   0  0  0  0  0  0  0  0  0  0  0  0
   -2.6962    1.1491    0.0000 H   0  0  0  0  0  0  0  0  0  0  0  0
   -2.6962   -1.1491    0.0000 H   0  0  0  0  0  0  0  0  0  0  0  0
   -0.6159   -2.2388    0.0000 H   0  0  0  0  0  0  0  0  0  0  0  0
  1  2  1  0
  2  3  1  0
  3  4  1  0
  4  5  1  0
  5  6  1  0
  6  7  1  0
  7  8  1  0
  8  9  1  0
  7 10  1  0
 10 11  1  0
 11 12  1  0
  3  1  1  0
  9  4  1  0
 12 10  1  0
 12  7  1  0
  1 13  1  0
  1 14  1  0
  2 15  1  0
  2 16  1  0
  3 17  1  0
  4 18  1  0
  5 19  1  0
  5 20  1  0
  6 21  1  0
  6 22  1  0
  8 23  1  0
  8 24  1  0
  9 25  1  0
  9 26  1  0
 10 27  1  0
 11 28  1  0
 11 29  1  0
 12 30  1  0
M  END
$$$$
