
     RDKit          2D

 44 47  0  0  0  0  0  0  0  0999 V2000
   -3.9655   -3.1889    0.0000 C   0  0  0  0  0  0  0  0  0  0  0  0
   -2.8744   -2.1595    0.0000 C   0  0  0  0  0  0  0  0  0  0  0  0
   -4.1734   -1.4095    0.0000 C   0  0  0  0  0  0  0  0  0  0  0  0
   -4.6865    0.0000    0.0000 C   0  0  0  0  0  0  0  0  0  0  0  0
   -6.1856    0.0523    0.0000 C   0  0  0  0  0  0  0  0  0  0  0  0
   -6.5990    1.4942    0.0000 C   0  0  0  0  0  0  0  0  0  0  0  0
   -5.3555    2.3330    0.0000 C   0  0  0  0  0  0  0  0  0  0  0  0
   -4.1734    1.4095    0.0000 C   0  0  0  0  0  0  0  0  0  0  0  0
   -2.8744    2.1595    0.0000 C   0  0  0  0  0  0  0  0  0  0  0  0
   -1.3972    1.8991    0.0000 C   0  0  0  0  0  0  0  0  0  0  0  0
   -0.4330    0.7500    0.0000 C   0  0  0  0  0  0  0  0  0  0  0  0
    0.8660    0.0000    0.0000 C   0  0  0  0  0  0  0  0  0  0  0  0
   -0.4330   -0.7500    0.0000 C   0  0  0  0  0  0  0  0  0  0  0  0
    0.5312   -1.8991    0.0000 C   0  0  0  0  0  0  0  0  0  0  0  0
   -1.3972   -1.8991    0.0000 C   0  0  0  0  0  0  0  0  0  0  0  0
   -1.9102    3.3086    0.0000 As  0  0  0  0  0  3  0  0  0  0  0  0
   -1.6498    4.7858    0.0000 C   0  0  0  0  0  0  0  0  0  0  0  0
   -5.0565   -4.2183    0.0000 H   0  0  0  0  0  0  0  0  0  0  0  0
   -3.0390   -4.1709    0.0000 H   0  0  0  0  0  0  0  0  0  0  0  0
   -4.6366   -2.7587    0.0000 H   0  0  0  0  0  0  0  0  0  0  0  0
   -2.4201   -3.4308    0.0000 H   0  0  0  0  0  0  0  0  0  0  0  0
   -5.6709   -1.4968    0.0000 H   0  0  0  0  0  0  0  0  0  0  0  0
   -4.6231   -2.0678    0.0000 H   0  0  0  0  0  0  0  0  0  0  0  0
   -5.4814    1.2721    0.0000 H   0  0  0  0  0  0  0  0  0  0  0  0
   -6.2641   -1.4456    0.0000 H   0  0  0  0  0  0  0  0  0  0  0  0
   -7.6628   -0.2081    0.0000 H   0  0  0  0  0  0  0  0  0  0  0  0
   -7.9898    0.9323    0.0000 H   0  0  0  0  0  0  0  0  0  0  0  0
   -7.3032    2.8187    0.0000 H   0  0  0  0  0  0  0  0  0  0  0  0
   -6.3196    3.4821    0.0000 H   0  0  0  0  0  0  0  0  0  0  0  0
   -4.4528    3.5310    0.0000 H   0  0  0  0  0  0  0  0  0  0  0  0
   -3.8872    2.8820    0.0000 H   0  0  0  0  0  0  0  0  0  0  0  0
   -1.4325    1.7462    0.0000 H   0  0  0  0  0  0  0  0  0  0  0  0
   -0.0982    2.6491    0.0000 H   0  0  0  0  0  0  0  0  0  0  0  0
    0.5312    1.8991    0.0000 H   0  0  0  0  0  0  0  0  0  0  0  0
    1.8302    1.1491    0.0000 H   0  0  0  0  0  0  0  0  0  0  0  0
    1.9631   -1.0230    0.0000 H   0  0  0  0  0  0  0  0  0  0  0  0
    1.4954   -3.0481    0.0000 H   0  0  0  0  0  0  0  0  0  0  0  0
   -0.4918   -2.9961    0.0000 H   0  0  0  0  0  0  0  0  0  0  0  0
    1.7892   -1.0821    0.0000 H   0  0  0  0  0  0  0  0  0  0  0  0
   -1.3884   -3.3990    0.0000 H   0  0  0  0  0  0  0  0  0  0  0  0
   -0.1026   -2.6566    0.0000 H   0  0  0  0  0  0  0  0  0  0  0  0
   -1.3893    6.2630    0.0000 H   0  0  0  0  0  0  0  0  0  0  0  0
   -0.1725    4.5253    0.0000 H   0  0  0  0  0  0  0  0  0  0  0  0
   -3.1270    5.0463    0.0000 H   0  0  0  0  0  0  0  0  0  0  0  0
  1  2  1  0
  2  3  1  0
  3  4  1  0
  4  5  1  0
  5  6  1  0
  6  7  1  0
  7  8  1  0
  8  9  1  0
  9 10  1  0
 10 11  1  0
 11 12  1  0
 12 13  1  0
 13 14  1  0
 13 15  1  0
 10 16  1  0
 16 17  1  0
 15  2  1  0
  8  4  1  0
 16  9  1  0
 13 11  1  0
  1 18  1  0
  1 19  1  0
  1 20  1  0
  2 21  1  0
  3 22  1  0
  3 23  1  0
  4 24  1  0
  5 25  1  0
  5 26  1  0
  6 27  1  0
  6 28  1  0
  7 29  1  0
  7 30  1  0
  8 31  1  0
  9 32  1  0
 10 33  1  0
 11 34  1  0
 12 35  1  0
 12 36  1  0
 14 37  1  0
 14 38  1  0
 14 39  1  0
 15 40  1  0
 15 41  1  0
 17 42  1  0
 17 43  1  0
 17 44  1  0
M  END
$$$$
