
     RDKit          2D

 64 69  0  0  0  0  0  0  0  0999 V2000
    1.8302    1.1491    0.0000 C   0  0  0  0  0  0  0  0  0  0  0  0
    0.8660    0.0000    0.0000 C   0  0  0  0  0  0  0  0  0  0  0  0
   -0.4330    0.7500    0.0000 C   0  0  0  0  0  0  0  0  0  0  0  0
   -1.6058    1.6852    0.0000 C   0  0  0  0  0  0  0  0  0  0  0  0
   -3.0682    1.3515    0.0000 C   0  0  0  0  0  0  0  0  0  0  0  0
   -3.0682    2.8515    0.0000 C   0  0  0  0  0  0  0  0  0  0  0  0
   -3.0682    4.3515    0.0000 N   0  0  0  0  0  0  0  0  0  0  0  0
   -3.7190   -0.0000    0.0000 C   0  0  0  0  0  0  0  0  0  0  0  0
   -3.0682   -1.3515    0.0000 C   0  0  0  0  0  0  0  0  0  0  0  0
   -1.6058   -1.6852    0.0000 Si  0  0  0  0  0  4  0  0  0  0  0  0
   -2.2566   -3.0367    0.0000 C   0  0  0  0  0  0  0  0  0  0  0  0
   -2.9074   -4.3881    0.0000 C   0  0  0  0  0  0  0  0  0  0  0  0
   -3.5582   -5.7396    0.0000 C   0  0  0  0  0  0  0  0  0  0  0  0
   -4.2091   -7.0910    0.0000 C   0  0  0  0  0  0  0  0  0  0  0  0
   -4.8599   -8.4425    0.0000 C   0  0  0  0  0  0  0  0  0  0  0  0
   -6.3038   -8.0362    0.0000 C   0  0  0  0  0  0  0  0  0  0  0  0
   -7.3776   -9.0836    0.0000 C   0  0  0  0  0  0  0  0  0  0  0  0
   -8.5955   -8.2080    0.0000 C   0  0  0  0  0  0  0  0  0  0  0  0
   -9.8134   -7.3324    0.0000 C   0  0  0  0  0  0  0  0  0  0  0  0
   -9.1626   -5.9809    0.0000 C   0  0  0  0  0  0  0  0  0  0  0  0
  -10.8872   -8.3797    0.0000 C   0  0  0  0  0  0  0  0  0  0  0  0
  -12.3312   -7.9735    0.0000 C   0  0  0  0  0  0  0  0  0  0  0  0
  -11.2574   -6.9261    0.0000 C   0  0  0  0  0  0  0  0  0  0  0  0
   -5.9337   -9.4899    0.0000 C   0  0  0  0  0  0  0  0  0  0  0  0
   -0.4330   -0.7500    0.0000 C   0  0  0  0  0  0  0  0  0  0  0  0
    2.7944    2.2981    0.0000 H   0  0  0  0  0  0  0  0  0  0  0  0
    1.0845    1.9488    0.0000 H   0  0  0  0  0  0  0  0  0  0  0  0
    2.9793    0.1849    0.0000 H   0  0  0  0  0  0  0  0  0  0  0  0
    1.8302   -1.1491    0.0000 H   0  0  0  0  0  0  0  0  0  0  0  0
    0.0683    1.7218    0.0000 H   0  0  0  0  0  0  0  0  0  0  0  0
   -0.4330    2.6205    0.0000 H   0  0  0  0  0  0  0  0  0  0  0  0
   -1.8615    2.4403    0.0000 H   0  0  0  0  0  0  0  0  0  0  0  0
   -4.4790    1.8610    0.0000 H   0  0  0  0  0  0  0  0  0  0  0  0
   -4.5682    2.8515    0.0000 H   0  0  0  0  0  0  0  0  0  0  0  0
   -2.2769    2.9486    0.0000 H   0  0  0  0  0  0  0  0  0  0  0  0
   -4.3672    5.1015    0.0000 H   0  0  0  0  0  0  0  0  0  0  0  0
   -1.7691    5.1015    0.0000 H   0  0  0  0  0  0  0  0  0  0  0  0
   -4.9970    0.7853    0.0000 H   0  0  0  0  0  0  0  0  0  0  0  0
   -4.9970   -0.7853    0.0000 H   0  0  0  0  0  0  0  0  0  0  0  0
   -4.4790   -1.8610    0.0000 H   0  0  0  0  0  0  0  0  0  0  0  0
   -3.2510   -2.8403    0.0000 H   0  0  0  0  0  0  0  0  0  0  0  0
   -0.4330   -2.6205    0.0000 H   0  0  0  0  0  0  0  0  0  0  0  0
   -3.6773   -2.5555    0.0000 H   0  0  0  0  0  0  0  0  0  0  0  0
   -0.9051   -3.6875    0.0000 H   0  0  0  0  0  0  0  0  0  0  0  0
   -1.5560   -5.0390    0.0000 H   0  0  0  0  0  0  0  0  0  0  0  0
   -4.2589   -3.7373    0.0000 H   0  0  0  0  0  0  0  0  0  0  0  0
   -4.9097   -5.0888    0.0000 H   0  0  0  0  0  0  0  0  0  0  0  0
   -2.2068   -6.3904    0.0000 H   0  0  0  0  0  0  0  0  0  0  0  0
   -2.8576   -7.7419    0.0000 H   0  0  0  0  0  0  0  0  0  0  0  0
   -5.5605   -6.4402    0.0000 H   0  0  0  0  0  0  0  0  0  0  0  0
   -3.6420   -9.3181    0.0000 H   0  0  0  0  0  0  0  0  0  0  0  0
   -6.6740   -6.5826    0.0000 H   0  0  0  0  0  0  0  0  0  0  0  0
   -8.0285  -10.4350    0.0000 H   0  0  0  0  0  0  0  0  0  0  0  0
   -9.4711   -9.4259    0.0000 H   0  0  0  0  0  0  0  0  0  0  0  0
   -7.5780   -7.1059    0.0000 H   0  0  0  0  0  0  0  0  0  0  0  0
   -8.5118   -4.6295    0.0000 H   0  0  0  0  0  0  0  0  0  0  0  0
  -10.5141   -5.3301    0.0000 H   0  0  0  0  0  0  0  0  0  0  0  0
   -7.7419   -6.4621    0.0000 H   0  0  0  0  0  0  0  0  0  0  0  0
  -10.5171   -9.8333    0.0000 H   0  0  0  0  0  0  0  0  0  0  0  0
  -12.9820   -9.3249    0.0000 H   0  0  0  0  0  0  0  0  0  0  0  0
  -13.5491   -7.0978    0.0000 H   0  0  0  0  0  0  0  0  0  0  0  0
  -11.6275   -5.4725    0.0000 H   0  0  0  0  0  0  0  0  0  0  0  0
   -5.5636  -10.9435    0.0000 H   0  0  0  0  0  0  0  0  0  0  0  0
    0.4120   -1.9894    0.0000 H   0  0  0  0  0  0  0  0  0  0  0  0
  1  2  1  0
  2  3  1  0
  3  4  1  0
  4  5  1  0
  5  6  1  0
  6  7  1  0
  5  8  1  0
  8  9  1  0
  9 10  1  0
 10 11  1  0
 11 12  1  0
 12 13  1  0
 13 14  1  0
 14 15  1  0
 15 16  1  0
 16 17  1  0
 17 18  1  0
 18 19  1  0
 19 20  1  0
 19 21  1  0
 21 22  1  0
 22 23  1  0
 17 24  1  0
 10 25  1  0
 25  2  1  0
 25  3  1  0
 24 15  1  0
 24 16  1  0
 23 19  1  0
 23 21  1  0
  1 26  1  0
  1 27  1  0
  1 28  1  0
  2 29  1  0
  3 30  1  0
  4 31  1  0
  4 32  1  0
  5 33  1  0
  6 34  1  0
  6 35  1  0
  7 36  1  0
  7 37  1  0
  8 38  1  0
  8 39  1  0
  9 40  1  0
  9 41  1  0
 10 42  1  0
 11 43  1  0
 11 44  1  0
 12 45  1  0
 12 46  1  0
 13 47  1  0
 13 48  1  0
 14 49  1  0
 14 50  1  0
 15 51  1  0
 16 52  1  0
 17 53  1  0
 18 54  1  0
 18 55  1  0
 20 56  1  0
 20 57  1  0
 20 58  1  0
 21 59  1  0
 22 60  1  0
 22 61  1  0
 23 62  1  0
 24 63  1  0
 25 64  1  0
M  END
$$$$
