
     RDKit          2D

 40 42  0  0  0  0  0  0  0  0999 V2000
    1.7477   -1.2135    0.0000 C   0  0  0  0  0  0  0  0  0  0  0  0
    0.8660    0.0000    0.0000 C   0  0  0  0  0  0  0  0  0  0  0  0
    1.9807    1.0037    0.0000 C   0  0  0  0  0  0  0  0  0  0  0  0
    1.3706    2.3740    0.0000 C   0  0  0  0  0  0  0  0  0  0  0  0
   -0.1211    2.2172    0.0000 C   0  0  0  0  0  0  0  0  0  0  0  0
   -0.4330    0.7500    0.0000 C   0  0  0  0  0  0  0  0  0  0  0  0
   -0.4330   -0.7500    0.0000 C   0  0  0  0  0  0  0  0  0  0  0  0
    0.0800   -2.1595    0.0000 C   0  0  0  0  0  0  0  0  0  0  0  0
    0.5930   -3.5691    0.0000 C   0  0  0  0  0  0  0  0  0  0  0  0
    1.1061   -4.9786    0.0000 C   0  0  0  0  0  0  0  0  0  0  0  0
    0.1419   -6.1277    0.0000 C   0  0  0  0  0  0  0  0  0  0  0  0
    0.6549   -7.5372    0.0000 C   0  0  0  0  0  0  0  0  0  0  0  0
   -0.3093   -8.6863    0.0000 C   0  0  0  0  0  0  0  0  0  0  0  0
    0.2038  -10.0958    0.0000 C   0  0  0  0  0  0  0  0  0  0  0  0
    0.2038  -11.5958    0.0000 C   0  0  0  0  0  0  0  0  0  0  0  0
   -1.0953  -10.8458    0.0000 C   0  0  0  0  0  0  0  0  0  0  0  0
    2.7707   -2.3105    0.0000 H   0  0  0  0  0  0  0  0  0  0  0  0
    1.2353   -1.8242    0.0000 H   0  0  0  0  0  0  0  0  0  0  0  0
    2.6085   -0.7364    0.0000 H   0  0  0  0  0  0  0  0  0  0  0  0
    2.6520    0.2840    0.0000 H   0  0  0  0  0  0  0  0  0  0  0  0
    3.2798    1.7537    0.0000 H   0  0  0  0  0  0  0  0  0  0  0  0
    2.7972    2.8375    0.0000 H   0  0  0  0  0  0  0  0  0  0  0  0
    1.0588    3.8412    0.0000 H   0  0  0  0  0  0  0  0  0  0  0  0
   -0.1211    3.7172    0.0000 H   0  0  0  0  0  0  0  0  0  0  0  0
   -1.6129    2.3740    0.0000 H   0  0  0  0  0  0  0  0  0  0  0  0
   -1.9248    0.9068    0.0000 H   0  0  0  0  0  0  0  0  0  0  0  0
   -1.9102   -1.0105    0.0000 H   0  0  0  0  0  0  0  0  0  0  0  0
   -1.3295   -2.6726    0.0000 H   0  0  0  0  0  0  0  0  0  0  0  0
    0.9609   -2.0670    0.0000 H   0  0  0  0  0  0  0  0  0  0  0  0
    2.0546   -3.2317    0.0000 H   0  0  0  0  0  0  0  0  0  0  0  0
   -0.8165   -4.0821    0.0000 H   0  0  0  0  0  0  0  0  0  0  0  0
    2.5833   -5.2391    0.0000 H   0  0  0  0  0  0  0  0  0  0  0  0
   -1.3353   -5.8672    0.0000 H   0  0  0  0  0  0  0  0  0  0  0  0
    2.1321   -7.7977    0.0000 H   0  0  0  0  0  0  0  0  0  0  0  0
   -1.7865   -8.4258    0.0000 H   0  0  0  0  0  0  0  0  0  0  0  0
    1.6810   -9.8354    0.0000 H   0  0  0  0  0  0  0  0  0  0  0  0
    1.6810  -11.8563    0.0000 H   0  0  0  0  0  0  0  0  0  0  0  0
   -0.3093  -13.0054    0.0000 H   0  0  0  0  0  0  0  0  0  0  0  0
   -2.0594  -11.9949    0.0000 H   0  0  0  0  0  0  0  0  0  0  0  0
   -2.0594   -9.6968    0.0000 H   0  0  0  0  0  0  0  0  0  0  0  0
  2  1  1  6
  2  3  1  0
  3  4  1  0
  4  5  1  0
  5  6  1  0
  6  7  1  0
  7  8  1  0
  8  9  1  0
  9 10  1  0
 10 11  2  3
 11 12  1  0
 12 13  2  3
 13 14  1  0
 14 15  1  0
 15 16  1  0
  6  2  1  0
 16 14  1  0
  7  2  1  0
  1 17  1  0
  1 18  1  0
  1 19  1  0
  3 20  1  0
  3 21  1  0
  4 22  1  0
  4 23  1  0
  5 24  1  0
  5 25  1  0
  6 26  1  6
  7 27  1  1
  8 28  1  0
  8 29  1  0
  9 30  1  0
  9 31  1  0
 10 32  1  0
 11 33  1  0
 12 34  1  0
 13 35  1  0
 14 36  1  0
 15 37  1  0
 15 38  1  0
 16 39  1  0
 16 40  1  0
M  END
$$$$
