
     RDKit          2D

 44 47  0  0  0  0  0  0  0  0999 V2000
    0.8660    6.0000    0.0000 C   0  0  0  0  0  0  0  0  0  0  0  0
    0.8660    4.5000    0.0000 C   0  0  0  0  0  0  0  0  0  0  0  0
    0.8660    3.0000    0.0000 C   0  0  0  0  0  0  0  0  0  0  0  0
   -0.4330    2.2500    0.0000 C   0  0  0  0  0  0  0  0  0  0  0  0
   -0.4330    0.7500    0.0000 C   0  0  0  0  0  0  0  0  0  0  0  0
    0.8660   -0.0000    0.0000 C   0  0  0  0  0  0  0  0  0  0  0  0
   -0.4330   -0.7500    0.0000 C   0  0  0  0  0  0  0  0  0  0  0  0
   -1.7321   -0.0000    0.0000 C   0  0  0  0  0  0  0  0  0  0  0  0
   -2.6962    1.1491    0.0000 N   0  0  0  0  0  0  0  0  0  0  0  0
   -4.1734    0.8886    0.0000 C   0  0  0  0  0  0  0  0  0  0  0  0
   -2.1832    2.5586    0.0000 Se  0  0  0  0  0  2  0  0  0  0  0  0
   -3.1474    3.7077    0.0000 C   0  0  0  0  0  0  0  0  0  0  0  0
   -4.1116    4.8567    0.0000 C   0  0  0  0  0  0  0  0  0  0  0  0
   -5.2606    3.8926    0.0000 O   0  0  0  0  0  0  0  0  0  0  0  0
   -6.2248    5.0416    0.0000 O   0  0  0  0  0  0  0  0  0  0  0  0
   -5.0757    6.0058    0.0000 C   0  0  0  0  0  0  0  0  0  0  0  0
   -3.9267    6.9700    0.0000 C   0  0  0  0  0  0  0  0  0  0  0  0
   -2.7776    7.9342    0.0000 C   0  0  0  0  0  0  0  0  0  0  0  0
   -2.0276    9.2332    0.0000 C   0  0  0  0  0  0  0  0  0  0  0  0
   -3.5276    9.2332    0.0000 N   0  0  0  0  0  0  0  0  0  0  0  0
    0.8660    7.5000    0.0000 H   0  0  0  0  0  0  0  0  0  0  0  0
   -0.6340    6.0000    0.0000 H   0  0  0  0  0  0  0  0  0  0  0  0
    2.3660    6.0000    0.0000 H   0  0  0  0  0  0  0  0  0  0  0  0
    2.3660    4.5000    0.0000 H   0  0  0  0  0  0  0  0  0  0  0  0
   -0.6340    4.5000    0.0000 H   0  0  0  0  0  0  0  0  0  0  0  0
    2.1651    2.2500    0.0000 H   0  0  0  0  0  0  0  0  0  0  0  0
   -1.5120    3.2920    0.0000 H   0  0  0  0  0  0  0  0  0  0  0  0
    1.8302    1.1491    0.0000 H   0  0  0  0  0  0  0  0  0  0  0  0
    1.8302   -1.1491    0.0000 H   0  0  0  0  0  0  0  0  0  0  0  0
   -0.4330   -2.2500    0.0000 H   0  0  0  0  0  0  0  0  0  0  0  0
   -2.6962   -1.1491    0.0000 H   0  0  0  0  0  0  0  0  0  0  0  0
   -5.6507    0.6281    0.0000 H   0  0  0  0  0  0  0  0  0  0  0  0
   -4.5287    2.0505    0.0000 H   0  0  0  0  0  0  0  0  0  0  0  0
   -3.9130   -0.5886    0.0000 H   0  0  0  0  0  0  0  0  0  0  0  0
   -4.1664    3.0460    0.0000 H   0  0  0  0  0  0  0  0  0  0  0  0
   -1.9983    4.6719    0.0000 H   0  0  0  0  0  0  0  0  0  0  0  0
   -3.3687    5.3391    0.0000 H   0  0  0  0  0  0  0  0  0  0  0  0
   -6.0399    7.1549    0.0000 H   0  0  0  0  0  0  0  0  0  0  0  0
   -4.8909    8.1191    0.0000 H   0  0  0  0  0  0  0  0  0  0  0  0
   -3.2789    6.3659    0.0000 H   0  0  0  0  0  0  0  0  0  0  0  0
   -1.6285    6.9700    0.0000 H   0  0  0  0  0  0  0  0  0  0  0  0
   -0.6181    8.7202    0.0000 H   0  0  0  0  0  0  0  0  0  0  0  0
   -1.7671   10.7104    0.0000 H   0  0  0  0  0  0  0  0  0  0  0  0
   -4.8267    9.9832    0.0000 H   0  0  0  0  0  0  0  0  0  0  0  0
  1  2  1  0
  2  3  1  0
  3  4  2  3
  5  4  1  6
  5  6  1  0
  6  7  1  0
  7  8  1  0
  8  9  1  0
  9 10  1  0
  9 11  1  0
 11 12  1  0
 12 13  1  0
 13 14  1  0
 14 15  1  0
 15 16  1  0
 16 17  1  0
 17 18  1  0
 18 19  1  0
 19 20  1  0
  7  5  1  0
 16 13  1  0
 20 18  1  0
  8  5  1  0
  1 21  1  0
  1 22  1  0
  1 23  1  0
  2 24  1  0
  2 25  1  0
  3 26  1  0
  4 27  1  0
  6 28  1  0
  6 29  1  0
  7 30  1  6
  8 31  1  1
 10 32  1  0
 10 33  1  0
 10 34  1  0
 12 35  1  0
 12 36  1  0
 13 37  1  6
 16 38  1  1
 17 39  1  0
 17 40  1  0
 18 41  1  1
 19 42  1  0
 19 43  1  0
 20 44  1  0
M  END
$$$$
