
     RDKit          2D

 40 46  0  0  0  0  0  0  0  0999 V2000
   -5.1150    2.4320    0.0000 C   0  0  0  0  0  0  0  0  0  0  0  0
   -5.5032    0.9831    0.0000 C   0  0  0  0  0  0  0  0  0  0  0  0
   -4.4426   -0.0776    0.0000 C   0  0  0  0  0  0  0  0  0  0  0  0
   -3.3819   -1.1382    0.0000 C   0  0  0  0  0  0  0  0  0  0  0  0
   -3.7701   -2.5871    0.0000 O   0  0  0  0  0  0  0  0  0  0  0  0
   -1.9330   -0.7500    0.0000 C   0  0  0  0  0  0  0  0  0  0  0  0
   -1.9330    0.7500    0.0000 C   0  0  0  0  0  0  0  0  0  0  0  0
   -3.0201   -0.9884    0.0000 N   0  0  0  0  0  0  0  0  0  0  0  0
   -2.6319   -2.4373    0.0000 C   0  0  0  0  0  0  0  0  0  0  0  0
   -2.2437   -3.8862    0.0000 C   0  0  0  0  0  0  0  0  0  0  0  0
   -1.8554   -5.3350    0.0000 N   0  0  0  0  0  0  0  0  0  0  0  0
   -1.1830   -2.0490    0.0000 C   0  0  0  0  0  0  0  0  0  0  0  0
   -0.4330   -0.7500    0.0000 C   0  0  0  0  0  0  0  0  0  0  0  0
   -0.4330    0.7500    0.0000 C   0  0  0  0  0  0  0  0  0  0  0  0
    0.8660    0.0000    0.0000 C   0  0  0  0  0  0  0  0  0  0  0  0
    1.8302    1.1491    0.0000 C   0  0  0  0  0  0  0  0  0  0  0  0
    1.8302   -1.1491    0.0000 F   0  0  0  0  0  0  0  0  0  0  0  0
   -6.9521    0.5949    0.0000 C   0  0  0  0  0  0  0  0  0  0  0  0
   -7.5860    1.9543    0.0000 C   0  0  0  0  0  0  0  0  0  0  0  0
   -9.0803    2.0851    0.0000 C   0  0  0  0  0  0  0  0  0  0  0  0
   -8.4464    0.7256    0.0000 C   0  0  0  0  0  0  0  0  0  0  0  0
   -9.3068   -0.5031    0.0000 Cl  0  0  0  0  0  0  0  0  0  0  0  0
   -4.7268    3.8809    0.0000 H   0  0  0  0  0  0  0  0  0  0  0  0
   -6.5058    2.9939    0.0000 H   0  0  0  0  0  0  0  0  0  0  0  0
   -3.6661    2.0438    0.0000 H   0  0  0  0  0  0  0  0  0  0  0  0
   -5.2190   -2.9753    0.0000 H   0  0  0  0  0  0  0  0  0  0  0  0
   -4.0991    0.0537    0.0000 H   0  0  0  0  0  0  0  0  0  0  0  0
   -3.9438   -3.1646    0.0000 H   0  0  0  0  0  0  0  0  0  0  0  0
   -3.6926   -4.2744    0.0000 H   0  0  0  0  0  0  0  0  0  0  0  0
   -0.7948   -3.4979    0.0000 H   0  0  0  0  0  0  0  0  0  0  0  0
   -0.4066   -5.7233    0.0000 H   0  0  0  0  0  0  0  0  0  0  0  0
   -2.9161   -6.3957    0.0000 H   0  0  0  0  0  0  0  0  0  0  0  0
   -0.2243    2.2354    0.0000 H   0  0  0  0  0  0  0  0  0  0  0  0
    2.7944    2.2981    0.0000 H   0  0  0  0  0  0  0  0  0  0  0  0
    2.9793    0.1849    0.0000 H   0  0  0  0  0  0  0  0  0  0  0  0
    0.8072    2.2461    0.0000 H   0  0  0  0  0  0  0  0  0  0  0  0
   -6.8214   -0.8994    0.0000 H   0  0  0  0  0  0  0  0  0  0  0  0
   -6.8819    3.2788    0.0000 H   0  0  0  0  0  0  0  0  0  0  0  0
   -9.2111    3.5794    0.0000 H   0  0  0  0  0  0  0  0  0  0  0  0
  -10.5292    1.6968    0.0000 H   0  0  0  0  0  0  0  0  0  0  0  0
  1  2  1  0
  2  3  2  0
  3  4  2  0
  4  5  1  0
  4  6  1  0
  6  7  1  0
  7  8  1  0
  8  9  1  0
  9 10  1  0
 10 11  1  0
  9 12  1  0
 12 13  1  0
 13 14  1  0
 14 15  1  0
 15 16  1  0
 15 17  1  0
  2 18  1  0
 18 19  1  0
 19 20  1  0
 20 21  1  0
 21 22  1  0
 12  6  1  0
 15 13  1  0
 21 18  1  0
 13  6  1  0
 21 19  1  0
 12  7  1  0
 14  7  1  0
  1 23  1  0
  1 24  1  0
  1 25  1  0
  5 26  1  0
  8 27  1  0
  9 28  1  0
 10 29  1  0
 10 30  1  0
 11 31  1  0
 11 32  1  0
 14 33  1  0
 16 34  1  0
 16 35  1  0
 16 36  1  0
 18 37  1  0
 19 38  1  0
 20 39  1  0
 20 40  1  0
M  END
$$$$
