
     RDKit          2D

101111  0  0  0  0  0  0  0  0999 V2000
    2.1651    5.2500    0.0000 C   0  0  0  0  0  0  0  0  0  0  0  0
    0.8660    4.5000    0.0000 N   0  0  0  0  0  0  0  0  0  0  0  0
    0.8660    3.0000    0.0000 C   0  0  0  0  0  0  0  0  0  0  0  0
    2.1651    2.2500    0.0000 C   0  0  0  0  0  0  0  0  0  0  0  0
    2.1651    0.7500    0.0000 C   0  0  0  0  0  0  0  0  0  0  0  0
    0.8660    0.0000    0.0000 C   0  0  0  0  0  0  0  0  0  0  0  0
   -0.4330    0.7500    0.0000 C   0  0  0  0  0  0  0  0  0  0  0  0
   -0.4330    2.2500    0.0000 Sb  0  0  0  0  0  3  0  0  0  0  0  0
   -0.4330   -0.7500    0.0000 C   0  0  0  0  0  0  0  0  0  0  0  0
   -1.9240   -1.4712    0.0000 C   0  0  0  0  0  0  0  0  0  0  0  0
   -3.4151   -1.3079    0.0000 C   0  0  0  0  0  0  0  0  0  0  0  0
   -4.6876   -0.5139    0.0000 C   0  0  0  0  0  0  0  0  0  0  0  0
   -5.1786   -1.9312    0.0000 C   0  0  0  0  0  0  0  0  0  0  0  0
   -6.5929   -2.4311    0.0000 C   0  0  0  0  0  0  0  0  0  0  0  0
   -7.8655   -1.6370    0.0000 C   0  0  0  0  0  0  0  0  0  0  0  0
   -8.0381   -0.1470    0.0000 C   0  0  0  0  0  0  0  0  0  0  0  0
   -6.9807    0.9170    0.0000 C   0  0  0  0  0  0  0  0  0  0  0  0
   -8.2533    1.7111    0.0000 C   0  0  0  0  0  0  0  0  0  0  0  0
   -9.5259    2.5052    0.0000 C   0  0  0  0  0  0  0  0  0  0  0  0
   -8.9648    3.8963    0.0000 C   0  0  0  0  0  0  0  0  0  0  0  0
  -10.9933    2.8161    0.0000 C   0  0  0  0  0  0  0  0  0  0  0  0
  -10.5289    1.3898    0.0000 C   0  0  0  0  0  0  0  0  0  0  0  0
  -11.8528    0.6848    0.0000 C   0  0  0  0  0  0  0  0  0  0  0  0
  -13.1768   -0.0203    0.0000 C   0  0  0  0  0  0  0  0  0  0  0  0
  -14.5008   -0.7253    0.0000 C   0  0  0  0  0  0  0  0  0  0  0  0
  -15.4250    0.4561    0.0000 C   0  0  0  0  0  0  0  0  0  0  0  0
  -16.8162    1.0171    0.0000 C   0  0  0  0  0  0  0  0  0  0  0  0
  -17.3772   -0.3740    0.0000 C   0  0  0  0  0  0  0  0  0  0  0  0
  -18.8625   -0.5837    0.0000 C   0  0  0  0  0  0  0  0  0  0  0  0
  -17.9382   -1.7651    0.0000 C   0  0  0  0  0  0  0  0  0  0  0  0
  -18.8402   -2.9636    0.0000 C   0  0  0  0  0  0  0  0  0  0  0  0
  -16.5471   -2.3262    0.0000 C   0  0  0  0  0  0  0  0  0  0  0  0
  -15.9861   -0.9350    0.0000 C   0  0  0  0  0  0  0  0  0  0  0  0
   -5.4896    0.7537    0.0000 C   0  0  0  0  0  0  0  0  0  0  0  0
   -6.5536    1.8111    0.0000 C   0  0  0  0  0  0  0  0  0  0  0  0
   -7.6176    2.8684    0.0000 C   0  0  0  0  0  0  0  0  0  0  0  0
   -5.6622    2.2438    0.0000 C   0  0  0  0  0  0  0  0  0  0  0  0
   -5.1713    3.6611    0.0000 C   0  0  0  0  0  0  0  0  0  0  0  0
   -4.1139    4.7251    0.0000 C   0  0  0  0  0  0  0  0  0  0  0  0
   -2.6997    5.2249    0.0000 O   0  0  0  0  0  0  0  0  0  0  0  0
   -1.2086    5.0617    0.0000 Sb  0  0  0  0  0  3  0  0  0  0  0  0
    0.0640    4.2676    0.0000 C   0  0  0  0  0  0  0  0  0  0  0  0
   -6.6442    3.3777    0.0000 N   0  0  0  0  0  0  0  0  0  0  0  0
    2.1651    6.7500    0.0000 H   0  0  0  0  0  0  0  0  0  0  0  0
    3.4641    4.5000    0.0000 H   0  0  0  0  0  0  0  0  0  0  0  0
    3.6423    1.9895    0.0000 H   0  0  0  0  0  0  0  0  0  0  0  0
    2.6781    3.6595    0.0000 H   0  0  0  0  0  0  0  0  0  0  0  0
    2.6781   -0.6595    0.0000 H   0  0  0  0  0  0  0  0  0  0  0  0
    3.6423    1.0105    0.0000 H   0  0  0  0  0  0  0  0  0  0  0  0
    0.3122    0.5734    0.0000 H   0  0  0  0  0  0  0  0  0  0  0  0
   -1.9330    0.7500    0.0000 H   0  0  0  0  0  0  0  0  0  0  0  0
   -1.7321    3.0000    0.0000 H   0  0  0  0  0  0  0  0  0  0  0  0
   -1.0191   -2.1308    0.0000 H   0  0  0  0  0  0  0  0  0  0  0  0
   -2.4536   -2.8746    0.0000 H   0  0  0  0  0  0  0  0  0  0  0  0
   -1.0875   -2.7164    0.0000 H   0  0  0  0  0  0  0  0  0  0  0  0
   -4.2185   -2.5746    0.0000 H   0  0  0  0  0  0  0  0  0  0  0  0
   -3.2017   -2.7927    0.0000 H   0  0  0  0  0  0  0  0  0  0  0  0
   -4.1878   -1.9281    0.0000 H   0  0  0  0  0  0  0  0  0  0  0  0
   -3.7186   -2.2750    0.0000 H   0  0  0  0  0  0  0  0  0  0  0  0
   -4.8257   -3.3891    0.0000 H   0  0  0  0  0  0  0  0  0  0  0  0
   -5.9514   -3.7870    0.0000 H   0  0  0  0  0  0  0  0  0  0  0  0
   -7.5126   -3.6160    0.0000 H   0  0  0  0  0  0  0  0  0  0  0  0
   -8.5256   -2.9839    0.0000 H   0  0  0  0  0  0  0  0  0  0  0  0
   -9.3653   -1.6567    0.0000 H   0  0  0  0  0  0  0  0  0  0  0  0
   -9.4523   -0.6468    0.0000 H   0  0  0  0  0  0  0  0  0  0  0  0
   -9.1230    0.8889    0.0000 H   0  0  0  0  0  0  0  0  0  0  0  0
   -7.0304    2.4162    0.0000 H   0  0  0  0  0  0  0  0  0  0  0  0
   -8.1498    3.2075    0.0000 H   0  0  0  0  0  0  0  0  0  0  0  0
   -9.0474    0.4385    0.0000 H   0  0  0  0  0  0  0  0  0  0  0  0
   -8.4038    5.2874    0.0000 H   0  0  0  0  0  0  0  0  0  0  0  0
  -10.1789    4.7773    0.0000 H   0  0  0  0  0  0  0  0  0  0  0  0
  -10.3560    4.4573    0.0000 H   0  0  0  0  0  0  0  0  0  0  0  0
  -11.3062    4.2831    0.0000 H   0  0  0  0  0  0  0  0  0  0  0  0
  -12.4931    2.7890    0.0000 H   0  0  0  0  0  0  0  0  0  0  0  0
   -9.9180    0.0198    0.0000 H   0  0  0  0  0  0  0  0  0  0  0  0
  -12.7140    1.9129    0.0000 H   0  0  0  0  0  0  0  0  0  0  0  0
  -11.1478   -0.6392    0.0000 H   0  0  0  0  0  0  0  0  0  0  0  0
  -12.4718   -1.3443    0.0000 H   0  0  0  0  0  0  0  0  0  0  0  0
  -13.7152    1.3798    0.0000 H   0  0  0  0  0  0  0  0  0  0  0  0
  -14.0364   -2.1516    0.0000 H   0  0  0  0  0  0  0  0  0  0  0  0
  -14.6759    1.7556    0.0000 H   0  0  0  0  0  0  0  0  0  0  0  0
  -18.2073    1.5782    0.0000 H   0  0  0  0  0  0  0  0  0  0  0  0
  -16.2551    2.4083    0.0000 H   0  0  0  0  0  0  0  0  0  0  0  0
  -19.3269    0.8426    0.0000 H   0  0  0  0  0  0  0  0  0  0  0  0
  -20.2625   -1.1221    0.0000 H   0  0  0  0  0  0  0  0  0  0  0  0
  -19.7422   -4.1622    0.0000 H   0  0  0  0  0  0  0  0  0  0  0  0
  -17.7606   -4.0050    0.0000 H   0  0  0  0  0  0  0  0  0  0  0  0
  -20.1397   -2.2145    0.0000 H   0  0  0  0  0  0  0  0  0  0  0  0
  -15.1560   -2.8872    0.0000 H   0  0  0  0  0  0  0  0  0  0  0  0
  -16.9344   -3.7753    0.0000 H   0  0  0  0  0  0  0  0  0  0  0  0
   -5.7851    3.0993    0.0000 H   0  0  0  0  0  0  0  0  0  0  0  0
   -7.8370    1.0346    0.0000 H   0  0  0  0  0  0  0  0  0  0  0  0
   -8.3941    4.1518    0.0000 H   0  0  0  0  0  0  0  0  0  0  0  0
   -6.8491    4.1566    0.0000 H   0  0  0  0  0  0  0  0  0  0  0  0
   -8.9860    2.2541    0.0000 H   0  0  0  0  0  0  0  0  0  0  0  0
   -7.1334    2.5366    0.0000 H   0  0  0  0  0  0  0  0  0  0  0  0
   -5.8763    4.9851    0.0000 H   0  0  0  0  0  0  0  0  0  0  0  0
   -4.9159    5.9927    0.0000 H   0  0  0  0  0  0  0  0  0  0  0  0
   -0.7176    6.4790    0.0000 H   0  0  0  0  0  0  0  0  0  0  0  0
    1.4246    4.8991    0.0000 H   0  0  0  0  0  0  0  0  0  0  0  0
    0.3383    5.7423    0.0000 H   0  0  0  0  0  0  0  0  0  0  0  0
  1  2  2  3
  3  2  1  6
  3  4  1  0
  4  5  1  0
  5  6  1  0
  6  7  1  0
  7  8  1  0
  7  9  1  0
  9 10  1  0
 10 11  1  0
 11 12  1  0
 12 13  1  0
 13 14  1  0
 14 15  1  0
 15 16  1  0
 16 17  1  0
 17 18  1  0
 19 18  1  6
 19 20  1  0
 19 21  1  0
 21 22  1  0
 22 23  1  0
 23 24  1  0
 24 25  1  0
 25 26  1  0
 26 27  1  0
 28 27  1  6
 28 29  1  0
 29 30  1  0
 30 31  1  6
 30 32  1  0
 33 32  1  1
 17 34  1  0
 34 35  1  1
 35 36  1  0
 34 37  1  0
 37 38  1  0
 38 39  1  0
 39 40  1  0
 40 41  1  0
 41 42  1  0
 39 43  1  0
  8  3  1  0
 34 12  1  0
 43 37  1  0
 42  3  1  0
  9  6  1  0
 22 19  1  0
 33 25  1  0
 43 38  1  0
 33 26  1  0
 30 28  1  0
 33 28  1  0
  1 44  1  0
  1 45  1  0
  4 46  1  0
  4 47  1  0
  5 48  1  0
  5 49  1  0
  6 50  1  1
  7 51  1  1
  8 52  1  0
  9 53  1  6
 10 54  1  0
 10 55  1  0
 11 56  1  0
 11 57  1  0
 12 58  1  1
 13 59  1  0
 13 60  1  0
 14 61  1  0
 14 62  1  0
 15 63  1  0
 15 64  1  0
 16 65  1  0
 16 66  1  0
 17 67  1  1
 18 68  1  0
 18 69  1  0
 20 70  1  0
 20 71  1  0
 20 72  1  0
 21 73  1  0
 21 74  1  0
 22 75  1  1
 23 76  1  0
 23 77  1  0
 24 78  1  0
 24 79  1  0
 25 80  1  1
 26 81  1  1
 27 82  1  0
 27 83  1  0
 29 84  1  0
 29 85  1  0
 31 86  1  0
 31 87  1  0
 31 88  1  0
 32 89  1  0
 32 90  1  0
 35 91  1  0
 35 92  1  0
 36 93  1  0
 36 94  1  0
 36 95  1  0
 37 96  1  1
 38 97  1  6
 39 98  1  6
 41 99  1  0
 42100  1  0
 42101  1  0
M  END
$$$$
