
     RDKit          2D

 53 58  0  0  0  0  0  0  0  0999 V2000
   -0.1001    8.2708    0.0000 C   0  0  0  0  0  0  0  0  0  0  0  0
   -0.5422    6.8374    0.0000 N   0  0  0  0  0  0  0  0  0  0  0  0
   -2.0046    6.5037    0.0000 N   0  0  0  0  0  0  0  0  0  0  0  0
   -3.0249    7.6032    0.0000 C   0  0  0  0  0  0  0  0  0  0  0  0
   -4.0451    8.7028    0.0000 N   0  0  0  0  0  0  0  0  0  0  0  0
   -5.5075    8.3690    0.0000 C   0  0  0  0  0  0  0  0  0  0  0  0
   -6.9699    8.0353    0.0000 C   0  0  0  0  0  0  0  0  0  0  0  0
   -5.9496    6.9357    0.0000 N   0  0  0  0  0  0  0  0  0  0  0  0
   -6.6258    8.2009    0.0000 C   0  0  0  0  0  0  0  0  0  0  0  0
   -6.5278    9.4686    0.0000 N   0  0  0  0  0  0  0  0  0  0  0  0
   -2.4467    5.0703    0.0000 N   0  0  0  0  0  0  0  0  0  0  0  0
   -1.4265    3.9707    0.0000 C   0  0  0  0  0  0  0  0  0  0  0  0
   -0.0302    3.4227    0.0000 C   0  0  0  0  0  0  0  0  0  0  0  0
    0.4120    1.9894    0.0000 C   0  0  0  0  0  0  0  0  0  0  0  0
   -0.4330    0.7500    0.0000 C   0  0  0  0  0  0  0  0  0  0  0  0
    0.8660    0.0000    0.0000 C   0  0  0  0  0  0  0  0  0  0  0  0
   -0.4330   -0.7500    0.0000 C   0  0  0  0  0  0  0  0  0  0  0  0
    0.0800   -2.1595    0.0000 C   0  0  0  0  0  0  0  0  0  0  0  0
   -1.9288    0.6379    0.0000 C   0  0  0  0  0  0  0  0  0  0  0  0
   -2.9491    1.7375    0.0000 C   0  0  0  0  0  0  0  0  0  0  0  0
   -3.9693    0.6379    0.0000 C   0  0  0  0  0  0  0  0  0  0  0  0
   -4.1218    2.6727    0.0000 C   0  0  0  0  0  0  0  0  0  0  0  0
   -2.7255    3.2207    0.0000 C   0  0  0  0  0  0  0  0  0  0  0  0
    0.3421    9.7042    0.0000 H   0  0  0  0  0  0  0  0  0  0  0  0
    1.3333    7.8287    0.0000 H   0  0  0  0  0  0  0  0  0  0  0  0
   -1.4689    8.8844    0.0000 H   0  0  0  0  0  0  0  0  0  0  0  0
    0.6045    5.8704    0.0000 H   0  0  0  0  0  0  0  0  0  0  0  0
   -2.0578    8.7499    0.0000 H   0  0  0  0  0  0  0  0  0  0  0  0
   -4.1244    6.5830    0.0000 H   0  0  0  0  0  0  0  0  0  0  0  0
   -3.6030   10.1362    0.0000 H   0  0  0  0  0  0  0  0  0  0  0  0
   -8.3807    7.5257    0.0000 H   0  0  0  0  0  0  0  0  0  0  0  0
   -8.5959    8.9966    0.0000 H   0  0  0  0  0  0  0  0  0  0  0  0
   -8.2727    7.0352    0.0000 H   0  0  0  0  0  0  0  0  0  0  0  0
   -3.9389    4.9173    0.0000 H   0  0  0  0  0  0  0  0  0  0  0  0
   -0.7389    5.3038    0.0000 H   0  0  0  0  0  0  0  0  0  0  0  0
    0.5457    4.8078    0.0000 H   0  0  0  0  0  0  0  0  0  0  0  0
    1.4408    3.7163    0.0000 H   0  0  0  0  0  0  0  0  0  0  0  0
    1.7927    2.5754    0.0000 H   0  0  0  0  0  0  0  0  0  0  0  0
    1.5587    1.0223    0.0000 H   0  0  0  0  0  0  0  0  0  0  0  0
    1.9631    1.0230    0.0000 H   0  0  0  0  0  0  0  0  0  0  0  0
    1.9631   -1.0230    0.0000 H   0  0  0  0  0  0  0  0  0  0  0  0
   -1.8675   -1.1886    0.0000 H   0  0  0  0  0  0  0  0  0  0  0  0
    0.5930   -3.5691    0.0000 H   0  0  0  0  0  0  0  0  0  0  0  0
   -1.3295   -2.6726    0.0000 H   0  0  0  0  0  0  0  0  0  0  0  0
    1.5416   -1.8222    0.0000 H   0  0  0  0  0  0  0  0  0  0  0  0
   -1.6647   -0.8387    0.0000 H   0  0  0  0  0  0  0  0  0  0  0  0
   -3.1267   -0.2648    0.0000 H   0  0  0  0  0  0  0  0  0  0  0  0
   -4.9896   -0.4617    0.0000 H   0  0  0  0  0  0  0  0  0  0  0  0
   -5.1851    1.5165    0.0000 H   0  0  0  0  0  0  0  0  0  0  0  0
   -3.0023   -0.5088    0.0000 H   0  0  0  0  0  0  0  0  0  0  0  0
   -5.3591    1.8247    0.0000 H   0  0  0  0  0  0  0  0  0  0  0  0
   -4.9040    3.9527    0.0000 H   0  0  0  0  0  0  0  0  0  0  0  0
   -3.5362    4.4828    0.0000 H   0  0  0  0  0  0  0  0  0  0  0  0
  1  2  1  0
  2  3  1  0
  3  4  1  0
  4  5  1  0
  5  6  1  0
  6  7  1  0
  7  8  1  0
  8  9  1  0
  9 10  1  0
  3 11  1  0
 11 12  1  0
 12 13  1  0
 13 14  1  0
 14 15  1  0
 15 16  1  0
 16 17  1  0
 17 18  1  0
 15 19  1  0
 19 20  1  0
 20 21  1  0
 20 22  1  0
 22 23  1  0
  8  6  1  0
 23 12  1  0
 10  6  1  0
 17 15  1  0
 23 20  1  0
 10  7  1  0
  1 24  1  0
  1 25  1  0
  1 26  1  0
  2 27  1  0
  4 28  1  0
  4 29  1  0
  5 30  1  0
  7 31  1  0
  9 32  1  0
  9 33  1  0
 11 34  1  0
 12 35  1  0
 13 36  1  0
 13 37  1  0
 14 38  1  0
 14 39  1  0
 16 40  1  0
 16 41  1  0
 17 42  1  0
 18 43  1  0
 18 44  1  0
 18 45  1  0
 19 46  1  0
 19 47  1  0
 21 48  1  0
 21 49  1  0
 21 50  1  0
 22 51  1  0
 22 52  1  0
 23 53  1  0
M  END
$$$$
