
     RDKit          2D

 31 30  0  0  0  0  0  0  0  0999 V2000
    5.1962    1.5000    0.0000 C   0  0  0  0  0  0  0  0  0  0  0  0
    3.8971    2.2500    0.0000 N   0  0  0  0  0  0  0  0  0  0  0  0
    2.5981    1.5000    0.0000 C   0  0  0  0  0  0  0  0  0  0  0  0
    1.2990    0.7500    0.0000 C   0  0  0  0  0  0  0  0  0  0  0  0
    0.0000    0.0000    0.0000 C   0  0  0  0  0  0  0  0  0  0  0  0
   -1.2990    0.7500    0.0000 O   0  0  0  0  0  0  0  0  0  0  0  0
   -0.0000   -1.5000    0.0000 O   0  0  0  0  0  0  0  0  0  0  0  0
   -1.2990   -2.2500    0.0000 C   0  0  0  0  0  0  0  0  0  0  0  0
   -2.5981   -3.0000    0.0000 C   0  0  0  0  0  0  0  0  0  0  0  0
   -3.8971   -3.7500    0.0000 C   0  0  0  0  0  0  0  0  0  0  0  0
   -5.1962   -4.5000    0.0000 C   0  0  0  0  0  0  0  0  0  0  0  0
   -3.1471   -5.0490    0.0000 C   0  0  0  0  0  0  0  0  0  0  0  0
    6.4952    0.7500    0.0000 H   0  0  0  0  0  0  0  0  0  0  0  0
    5.9462    2.7990    0.0000 H   0  0  0  0  0  0  0  0  0  0  0  0
    4.4462    0.2010    0.0000 H   0  0  0  0  0  0  0  0  0  0  0  0
    3.8971    3.7500    0.0000 H   0  0  0  0  0  0  0  0  0  0  0  0
    1.8481    2.7990    0.0000 H   0  0  0  0  0  0  0  0  0  0  0  0
    3.3481    0.2010    0.0000 H   0  0  0  0  0  0  0  0  0  0  0  0
    2.0490   -0.5490    0.0000 H   0  0  0  0  0  0  0  0  0  0  0  0
    0.5490    2.0490    0.0000 H   0  0  0  0  0  0  0  0  0  0  0  0
   -2.0490   -0.9510    0.0000 H   0  0  0  0  0  0  0  0  0  0  0  0
   -0.5490   -3.5490    0.0000 H   0  0  0  0  0  0  0  0  0  0  0  0
   -3.3481   -1.7010    0.0000 H   0  0  0  0  0  0  0  0  0  0  0  0
   -2.0650   -3.7074    0.0000 H   0  0  0  0  0  0  0  0  0  0  0  0
   -4.6471   -2.4510    0.0000 H   0  0  0  0  0  0  0  0  0  0  0  0
   -6.4952   -5.2500    0.0000 H   0  0  0  0  0  0  0  0  0  0  0  0
   -5.9462   -3.2010    0.0000 H   0  0  0  0  0  0  0  0  0  0  0  0
   -4.8501   -5.3153    0.0000 H   0  0  0  0  0  0  0  0  0  0  0  0
   -2.3971   -6.3481    0.0000 H   0  0  0  0  0  0  0  0  0  0  0  0
   -3.8545   -5.5821    0.0000 H   0  0  0  0  0  0  0  0  0  0  0  0
   -2.3318   -4.7030    0.0000 H   0  0  0  0  0  0  0  0  0  0  0  0
  1  2  1  0
  2  3  1  0
  3  4  1  0
  4  5  1  0
  5  6  2  0
  5  7  1  0
  7  8  1  0
  8  9  1  0
  9 10  1  0
 10 11  1  0
 10 12  1  0
  1 13  1  0
  1 14  1  0
  1 15  1  0
  2 16  1  0
  3 17  1  0
  3 18  1  0
  4 19  1  0
  4 20  1  0
  8 21  1  0
  8 22  1  0
  9 23  1  0
  9 24  1  0
 10 25  1  0
 11 26  1  0
 11 27  1  0
 11 28  1  0
 12 29  1  0
 12 30  1  0
 12 31  1  0
M  END
$$$$
