
     RDKit          2D

 70 71  0  0  0  0  0  0  0  0999 V2000
    2.6749    7.1548    0.0000 C   0  0  0  0  0  0  0  0  0  0  0  0
    1.3046    6.5447    0.0000 C   0  0  0  0  0  0  0  0  0  0  0  0
   -0.0657    5.9346    0.0000 C   0  0  0  0  0  0  0  0  0  0  0  0
   -1.4360    5.3245    0.0000 C   0  0  0  0  0  0  0  0  0  0  0  0
   -2.8063    4.7144    0.0000 C   0  0  0  0  0  0  0  0  0  0  0  0
   -2.0461    6.6948    0.0000 C   0  0  0  0  0  0  0  0  0  0  0  0
   -2.6562    8.0651    0.0000 C   0  0  0  0  0  0  0  0  0  0  0  0
   -3.2663    9.4354    0.0000 C   0  0  0  0  0  0  0  0  0  0  0  0
   -3.5782   10.9027    0.0000 C   0  0  0  0  0  0  0  0  0  0  0  0
   -5.0700   11.0594    0.0000 O   0  0  0  0  0  0  0  0  0  0  0  0
   -5.6801    9.6891    0.0000 C   0  0  0  0  0  0  0  0  0  0  0  0
   -6.5618    8.4756    0.0000 O   0  0  0  0  0  0  0  0  0  0  0  0
   -6.9791   10.4391    0.0000 C   0  0  0  0  0  0  0  0  0  0  0  0
   -8.2782   11.1891    0.0000 C   0  0  0  0  0  0  0  0  0  0  0  0
   -9.5772   11.9391    0.0000 C   0  0  0  0  0  0  0  0  0  0  0  0
  -10.8762   12.6891    0.0000 O   0  0  0  0  0  0  0  0  0  0  0  0
   -4.5654    8.6854    0.0000 C   0  0  0  0  0  0  0  0  0  0  0  0
    0.5444    4.5643    0.0000 C   0  0  0  0  0  0  0  0  0  0  0  0
    1.9147    5.1744    0.0000 O   0  0  0  0  0  0  0  0  0  0  0  0
    1.1545    3.1939    0.0000 C   0  0  0  0  0  0  0  0  0  0  0  0
    1.7646    1.8236    0.0000 O   0  0  0  0  0  0  0  0  0  0  0  0
   -0.2158    2.5838    0.0000 O   0  0  0  0  0  0  0  0  0  0  0  0
    2.5248    3.8041    0.0000 O   0  0  0  0  0  0  0  0  0  0  0  0
    3.7384    2.9224    0.0000 C   0  0  0  0  0  0  0  0  0  0  0  0
    4.7421    1.8077    0.0000 C   0  0  0  0  0  0  0  0  0  0  0  0
    6.1124    2.4178    0.0000 C   0  0  0  0  0  0  0  0  0  0  0  0
    5.9556    3.9095    0.0000 C   0  0  0  0  0  0  0  0  0  0  0  0
    7.4556    3.9095    0.0000 N   0  0  0  0  0  0  0  0  0  0  0  0
    4.4884    4.2214    0.0000 C   0  0  0  0  0  0  0  0  0  0  0  0
    4.0453    7.7649    0.0000 H   0  0  0  0  0  0  0  0  0  0  0  0
    3.2850    5.7845    0.0000 H   0  0  0  0  0  0  0  0  0  0  0  0
    2.0648    8.5251    0.0000 H   0  0  0  0  0  0  0  0  0  0  0  0
    1.7954    5.9165    0.0000 H   0  0  0  0  0  0  0  0  0  0  0  0
    0.6945    7.9150    0.0000 H   0  0  0  0  0  0  0  0  0  0  0  0
   -0.5042    7.3691    0.0000 H   0  0  0  0  0  0  0  0  0  0  0  0
   -0.9975    3.8900    0.0000 H   0  0  0  0  0  0  0  0  0  0  0  0
   -4.1767    4.1043    0.0000 H   0  0  0  0  0  0  0  0  0  0  0  0
   -2.1962    3.3441    0.0000 H   0  0  0  0  0  0  0  0  0  0  0  0
   -3.5789    6.0001    0.0000 H   0  0  0  0  0  0  0  0  0  0  0  0
   -3.4806    6.2563    0.0000 H   0  0  0  0  0  0  0  0  0  0  0  0
   -0.7604    7.4674    0.0000 H   0  0  0  0  0  0  0  0  0  0  0  0
   -3.9420    7.2925    0.0000 H   0  0  0  0  0  0  0  0  0  0  0  0
   -1.2859    8.6752    0.0000 H   0  0  0  0  0  0  0  0  0  0  0  0
   -1.8397    9.8990    0.0000 H   0  0  0  0  0  0  0  0  0  0  0  0
   -2.0864   11.0594    0.0000 H   0  0  0  0  0  0  0  0  0  0  0  0
   -3.5782   12.4027    0.0000 H   0  0  0  0  0  0  0  0  0  0  0  0
   -6.1232    7.0411    0.0000 H   0  0  0  0  0  0  0  0  0  0  0  0
   -7.7291    9.1401    0.0000 H   0  0  0  0  0  0  0  0  0  0  0  0
   -6.2291   11.7382    0.0000 H   0  0  0  0  0  0  0  0  0  0  0  0
   -7.5282   12.4882    0.0000 H   0  0  0  0  0  0  0  0  0  0  0  0
   -9.0282    9.8901    0.0000 H   0  0  0  0  0  0  0  0  0  0  0  0
  -10.3272   10.6401    0.0000 H   0  0  0  0  0  0  0  0  0  0  0  0
   -8.8272   13.2382    0.0000 H   0  0  0  0  0  0  0  0  0  0  0  0
  -10.8762   14.1891    0.0000 H   0  0  0  0  0  0  0  0  0  0  0  0
   -5.5494    7.5533    0.0000 H   0  0  0  0  0  0  0  0  0  0  0  0
   -3.8382    7.3735    0.0000 H   0  0  0  0  0  0  0  0  0  0  0  0
   -0.7413    3.7917    0.0000 H   0  0  0  0  0  0  0  0  0  0  0  0
    3.3636    4.7863    0.0000 H   0  0  0  0  0  0  0  0  0  0  0  0
    0.8829    0.6101    0.0000 H   0  0  0  0  0  0  0  0  0  0  0  0
   -0.3726    1.0921    0.0000 H   0  0  0  0  0  0  0  0  0  0  0  0
    2.7347    1.8077    0.0000 H   0  0  0  0  0  0  0  0  0  0  0  0
    3.5285    0.9260    0.0000 H   0  0  0  0  0  0  0  0  0  0  0  0
    5.4921    0.5086    0.0000 H   0  0  0  0  0  0  0  0  0  0  0  0
    6.5759    0.9912    0.0000 H   0  0  0  0  0  0  0  0  0  0  0  0
    7.6067    2.5485    0.0000 H   0  0  0  0  0  0  0  0  0  0  0  0
    6.1124    5.4013    0.0000 H   0  0  0  0  0  0  0  0  0  0  0  0
    8.2056    5.2086    0.0000 H   0  0  0  0  0  0  0  0  0  0  0  0
    8.3583    2.7116    0.0000 H   0  0  0  0  0  0  0  0  0  0  0  0
    4.9519    5.6480    0.0000 H   0  0  0  0  0  0  0  0  0  0  0  0
    3.2026    4.9940    0.0000 H   0  0  0  0  0  0  0  0  0  0  0  0
  1  2  1  0
  2  3  1  0
  3  4  1  0
  4  5  1  0
  4  6  1  0
  6  7  1  0
  7  8  1  0
  8  9  1  0
  9 10  1  0
 10 11  1  0
 11 12  1  0
 11 13  1  0
 13 14  1  0
 14 15  1  0
 15 16  1  0
 11 17  1  0
  3 18  1  0
 18 19  1  0
 18 20  1  0
 20 21  1  0
 20 22  1  0
 20 23  1  0
 23 24  1  0
 24 25  1  0
 25 26  1  0
 26 27  1  0
 27 28  1  0
 27 29  1  0
 17  8  1  0
 29 24  1  0
  1 30  1  0
  1 31  1  0
  1 32  1  0
  2 33  1  0
  2 34  1  0
  3 35  1  0
  4 36  1  0
  5 37  1  0
  5 38  1  0
  5 39  1  0
  6 40  1  0
  6 41  1  0
  7 42  1  0
  7 43  1  0
  8 44  1  0
  9 45  1  0
  9 46  1  0
 12 47  1  0
 13 48  1  0
 13 49  1  0
 14 50  1  0
 14 51  1  0
 15 52  1  0
 15 53  1  0
 16 54  1  0
 17 55  1  0
 17 56  1  0
 18 57  1  0
 19 58  1  0
 21 59  1  0
 22 60  1  0
 24 61  1  0
 25 62  1  0
 25 63  1  0
 26 64  1  0
 26 65  1  0
 27 66  1  0
 28 67  1  0
 28 68  1  0
 29 69  1  0
 29 70  1  0
M  END
$$$$
