
     RDKit          2D

 40 39  0  0  0  0  0  0  0  0999 V2000
    7.7942   -1.5000    0.0000 C   0  0  0  0  0  0  0  0  0  0  0  0
    6.4952   -2.2500    0.0000 C   0  0  0  0  0  0  0  0  0  0  0  0
    5.1962   -1.5000    0.0000 C   0  0  0  0  0  0  0  0  0  0  0  0
    3.8971   -0.7500    0.0000 C   0  0  0  0  0  0  0  0  0  0  0  0
    2.5981   -0.0000    0.0000 C   0  0  0  0  0  0  0  0  0  0  0  0
    3.1471   -2.0490    0.0000 C   0  0  0  0  0  0  0  0  0  0  0  0
    2.3971   -3.3481    0.0000 Se  0  0  0  0  0  2  0  0  0  0  0  0
    3.1471   -4.6471    0.0000 C   0  0  0  0  0  0  0  0  0  0  0  0
    4.6471   -4.6471    0.0000 O   0  0  0  0  0  0  0  0  0  0  0  0
    2.3971   -5.9462    0.0000 C   0  0  0  0  0  0  0  0  0  0  0  0
    3.1471   -7.2452    0.0000 C   0  0  0  0  0  0  0  0  0  0  0  0
    0.8971   -5.9462    0.0000 C   0  0  0  0  0  0  0  0  0  0  0  0
   -0.6029   -5.9462    0.0000 C   0  0  0  0  0  0  0  0  0  0  0  0
   -2.1029   -5.9462    0.0000 C   0  0  0  0  0  0  0  0  0  0  0  0
   -0.6029   -4.4462    0.0000 C   0  0  0  0  0  0  0  0  0  0  0  0
   -0.6029   -2.9462    0.0000 C   0  0  0  0  0  0  0  0  0  0  0  0
    9.0933   -2.2500    0.0000 H   0  0  0  0  0  0  0  0  0  0  0  0
    7.7942    0.0000    0.0000 H   0  0  0  0  0  0  0  0  0  0  0  0
    6.4952   -3.7500    0.0000 H   0  0  0  0  0  0  0  0  0  0  0  0
    5.9462   -0.2010    0.0000 H   0  0  0  0  0  0  0  0  0  0  0  0
    4.8501   -2.3153    0.0000 H   0  0  0  0  0  0  0  0  0  0  0  0
    4.6471    0.5490    0.0000 H   0  0  0  0  0  0  0  0  0  0  0  0
    1.2990    0.7500    0.0000 H   0  0  0  0  0  0  0  0  0  0  0  0
    3.3481    1.2990    0.0000 H   0  0  0  0  0  0  0  0  0  0  0  0
    2.0650   -0.7074    0.0000 H   0  0  0  0  0  0  0  0  0  0  0  0
    3.8545   -2.5821    0.0000 H   0  0  0  0  0  0  0  0  0  0  0  0
    2.3318   -1.7030    0.0000 H   0  0  0  0  0  0  0  0  0  0  0  0
    2.3971   -8.5442    0.0000 H   0  0  0  0  0  0  0  0  0  0  0  0
    4.6471   -7.2452    0.0000 H   0  0  0  0  0  0  0  0  0  0  0  0
    0.8971   -7.4462    0.0000 H   0  0  0  0  0  0  0  0  0  0  0  0
    1.0800   -4.4573    0.0000 H   0  0  0  0  0  0  0  0  0  0  0  0
   -0.6029   -7.4462    0.0000 H   0  0  0  0  0  0  0  0  0  0  0  0
   -3.6029   -5.9462    0.0000 H   0  0  0  0  0  0  0  0  0  0  0  0
   -2.1029   -7.4462    0.0000 H   0  0  0  0  0  0  0  0  0  0  0  0
   -2.2109   -5.0670    0.0000 H   0  0  0  0  0  0  0  0  0  0  0  0
   -1.4820   -4.3382    0.0000 H   0  0  0  0  0  0  0  0  0  0  0  0
    0.8859   -4.2633    0.0000 H   0  0  0  0  0  0  0  0  0  0  0  0
   -0.6029   -1.4462    0.0000 H   0  0  0  0  0  0  0  0  0  0  0  0
   -2.1029   -2.9462    0.0000 H   0  0  0  0  0  0  0  0  0  0  0  0
    0.8971   -2.9462    0.0000 H   0  0  0  0  0  0  0  0  0  0  0  0
  1  2  2  3
  2  3  1  0
  3  4  1  0
  4  5  1  0
  4  6  1  0
  6  7  1  0
  7  8  1  0
  8  9  2  0
  8 10  1  0
 10 11  2  3
 10 12  1  0
 12 13  1  0
 13 14  1  0
 13 15  1  0
 15 16  1  0
  1 17  1  0
  1 18  1  0
  2 19  1  0
  3 20  1  0
  3 21  1  0
  4 22  1  0
  5 23  1  0
  5 24  1  0
  5 25  1  0
  6 26  1  0
  6 27  1  0
 11 28  1  0
 11 29  1  0
 12 30  1  0
 12 31  1  0
 13 32  1  0
 14 33  1  0
 14 34  1  0
 14 35  1  0
 15 36  1  0
 15 37  1  0
 16 38  1  0
 16 39  1  0
 16 40  1  0
M  END
$$$$
