
     RDKit          2D

 57 61  0  0  0  0  0  0  0  0999 V2000
   -0.9790   -7.3672    0.0000 O   0  0  0  0  0  0  0  0  0  0  0  0
   -2.4562   -7.6277    0.0000 C   0  0  0  0  0  0  0  0  0  0  0  0
   -2.9692   -6.2181    0.0000 C   0  0  0  0  0  0  0  0  0  0  0  0
   -3.4822   -4.8086    0.0000 C   0  0  0  0  0  0  0  0  0  0  0  0
   -3.9953   -3.3991    0.0000 C   0  0  0  0  0  0  0  0  0  0  0  0
   -3.9953   -1.8991    0.0000 C   0  0  0  0  0  0  0  0  0  0  0  0
   -2.6962   -2.6491    0.0000 C   0  0  0  0  0  0  0  0  0  0  0  0
   -1.7321   -1.5000    0.0000 C   0  0  0  0  0  0  0  0  0  0  0  0
   -3.0311   -0.7500    0.0000 C   0  0  0  0  0  0  0  0  0  0  0  0
   -3.9953   -1.8991    0.0000 C   0  0  0  0  0  0  0  0  0  0  0  0
   -5.4725   -2.1595    0.0000 C   0  0  0  0  0  0  0  0  0  0  0  0
   -6.7715   -1.4095    0.0000 C   0  0  0  0  0  0  0  0  0  0  0  0
   -7.2846   -0.0000    0.0000 N   0  0  0  0  0  0  0  0  0  0  0  0
   -6.7715    1.4095    0.0000 C   0  0  0  0  0  0  0  0  0  0  0  0
   -5.4725    2.1595    0.0000 N   0  0  0  0  0  0  0  0  0  0  0  0
   -3.9953    1.8991    0.0000 C   0  0  0  0  0  0  0  0  0  0  0  0
   -3.0311    0.7500    0.0000 C   0  0  0  0  0  0  0  0  0  0  0  0
   -1.7321    1.5000    0.0000 C   0  0  0  0  0  0  0  0  0  0  0  0
   -0.4330    0.7500    0.0000 C   0  0  0  0  0  0  0  0  0  0  0  0
    0.8660    0.0000    0.0000 C   0  0  0  0  0  0  0  0  0  0  0  0
   -0.4330   -0.7500    0.0000 C   0  0  0  0  0  0  0  0  0  0  0  0
   -2.4562   -9.1277    0.0000 C   0  0  0  0  0  0  0  0  0  0  0  0
   -3.7552   -8.3777    0.0000 C   0  0  0  0  0  0  0  0  0  0  0  0
   -0.0148   -8.5163    0.0000 H   0  0  0  0  0  0  0  0  0  0  0  0
   -1.5597   -5.7051    0.0000 H   0  0  0  0  0  0  0  0  0  0  0  0
   -4.4308   -6.5555    0.0000 H   0  0  0  0  0  0  0  0  0  0  0  0
   -2.0207   -4.4712    0.0000 H   0  0  0  0  0  0  0  0  0  0  0  0
   -4.8918   -5.3216    0.0000 H   0  0  0  0  0  0  0  0  0  0  0  0
   -5.4297   -3.8377    0.0000 H   0  0  0  0  0  0  0  0  0  0  0  0
   -5.4916   -2.0038    0.0000 H   0  0  0  0  0  0  0  0  0  0  0  0
   -3.8386   -0.4073    0.0000 H   0  0  0  0  0  0  0  0  0  0  0  0
   -1.5992   -3.6720    0.0000 H   0  0  0  0  0  0  0  0  0  0  0  0
   -0.7679   -2.6491    0.0000 H   0  0  0  0  0  0  0  0  0  0  0  0
   -4.5311   -0.7500    0.0000 H   0  0  0  0  0  0  0  0  0  0  0  0
   -2.8026   -2.8088    0.0000 H   0  0  0  0  0  0  0  0  0  0  0  0
   -4.3497   -3.3566    0.0000 H   0  0  0  0  0  0  0  0  0  0  0  0
   -5.1436   -3.6231    0.0000 H   0  0  0  0  0  0  0  0  0  0  0  0
   -6.4299   -3.3142    0.0000 H   0  0  0  0  0  0  0  0  0  0  0  0
   -7.2928   -2.8161    0.0000 H   0  0  0  0  0  0  0  0  0  0  0  0
   -8.2690   -1.4968    0.0000 H   0  0  0  0  0  0  0  0  0  0  0  0
   -8.7846   -0.0000    0.0000 H   0  0  0  0  0  0  0  0  0  0  0  0
   -8.2690    1.4968    0.0000 H   0  0  0  0  0  0  0  0  0  0  0  0
   -7.1174    2.8691    0.0000 H   0  0  0  0  0  0  0  0  0  0  0  0
   -5.7330    3.6368    0.0000 H   0  0  0  0  0  0  0  0  0  0  0  0
   -4.1694    3.3889    0.0000 H   0  0  0  0  0  0  0  0  0  0  0  0
   -2.7006    2.6566    0.0000 H   0  0  0  0  0  0  0  0  0  0  0  0
   -1.6215    0.2370    0.0000 H   0  0  0  0  0  0  0  0  0  0  0  0
   -0.7679    2.6491    0.0000 H   0  0  0  0  0  0  0  0  0  0  0  0
   -2.5490    2.7580    0.0000 H   0  0  0  0  0  0  0  0  0  0  0  0
    0.3170    2.0490    0.0000 H   0  0  0  0  0  0  0  0  0  0  0  0
    1.8302    1.1491    0.0000 H   0  0  0  0  0  0  0  0  0  0  0  0
    1.8302   -1.1491    0.0000 H   0  0  0  0  0  0  0  0  0  0  0  0
    0.3170   -2.0490    0.0000 H   0  0  0  0  0  0  0  0  0  0  0  0
   -0.9790   -9.3882    0.0000 H   0  0  0  0  0  0  0  0  0  0  0  0
   -2.9692  -10.5372    0.0000 H   0  0  0  0  0  0  0  0  0  0  0  0
   -4.7194   -9.5268    0.0000 H   0  0  0  0  0  0  0  0  0  0  0  0
   -4.8523   -7.3547    0.0000 H   0  0  0  0  0  0  0  0  0  0  0  0
  1  2  1  0
  2  3  1  0
  3  4  1  0
  4  5  1  0
  5  6  1  0
  6  7  1  0
  7  8  1  0
  8  9  1  0
  9 10  1  0
 10 11  1  0
 11 12  1  0
 12 13  1  0
 13 14  1  0
 14 15  1  0
 15 16  1  0
 16 17  1  0
 17 18  1  0
 18 19  1  0
 19 20  1  0
 20 21  1  0
  2 22  1  0
 22 23  1  0
 23  2  1  0
  7  5  1  0
 21  8  1  0
 17  9  1  0
 21 19  1  0
  1 24  1  0
  3 25  1  0
  3 26  1  0
  4 27  1  0
  4 28  1  0
  5 29  1  0
  6 30  1  0
  6 31  1  0
  7 32  1  0
  8 33  1  0
  9 34  1  0
 10 35  1  0
 10 36  1  0
 11 37  1  0
 11 38  1  0
 12 39  1  0
 12 40  1  0
 13 41  1  0
 14 42  1  0
 14 43  1  0
 15 44  1  0
 16 45  1  0
 16 46  1  0
 17 47  1  0
 18 48  1  0
 18 49  1  0
 19 50  1  0
 20 51  1  0
 20 52  1  0
 21 53  1  0
 22 54  1  0
 22 55  1  0
 23 56  1  0
 23 57  1  0
M  END
$$$$
