
     RDKit          2D

 50 54  0  0  0  0  0  0  0  0999 V2000
    3.7638    7.1404    0.0000 C   0  0  0  0  0  0  0  0  0  0  0  0
    3.3756    5.6915    0.0000 C   0  0  0  0  0  0  0  0  0  0  0  0
    2.9873    4.2426    0.0000 O   0  0  0  0  0  0  0  0  0  0  0  0
    4.0480    3.1820    0.0000 C   0  0  0  0  0  0  0  0  0  0  0  0
    4.6762    3.6727    0.0000 F   0  0  0  0  0  0  0  0  0  0  0  0
    5.1087    2.1213    0.0000 C   0  0  0  0  0  0  0  0  0  0  0  0
    6.1693    1.0607    0.0000 C   0  0  0  0  0  0  0  0  0  0  0  0
    4.0480    1.0607    0.0000 C   0  0  0  0  0  0  0  0  0  0  0  0
    2.9873   -0.0000    0.0000 C   0  0  0  0  0  0  0  0  0  0  0  0
    1.9267   -1.0607    0.0000 C   0  0  0  0  0  0  0  0  0  0  0  0
    0.8660    0.0000    0.0000 C   0  0  0  0  0  0  0  0  0  0  0  0
    1.9267    1.0607    0.0000 C   0  0  0  0  0  0  0  0  0  0  0  0
    2.8501    2.2427    0.0000 Cl  0  0  0  0  0  0  0  0  0  0  0  0
    0.8660    2.1213    0.0000 C   0  0  0  0  0  0  0  0  0  0  0  0
   -0.1946    3.1820    0.0000 C   0  0  0  0  0  0  0  0  0  0  0  0
   -1.2553    4.2426    0.0000 P   0  0  0  0  0  0  0  0  0  0  0  0
   -0.4330    0.7500    0.0000 C   0  0  0  0  0  0  0  0  0  0  0  0
   -0.0448    2.1989    0.0000 N   0  0  0  0  0  0  0  0  0  0  0  0
   -1.9330    0.7500    0.0000 C   0  0  0  0  0  0  0  0  0  0  0  0
   -2.3212    2.1989    0.0000 F   0  0  0  0  0  0  0  0  0  0  0  0
   -3.2321   -0.0000    0.0000 N   0  0  0  0  0  0  0  0  0  0  0  0
   -3.2321   -1.5000    0.0000 C   0  0  0  0  0  0  0  0  0  0  0  0
   -1.9330   -0.7500    0.0000 C   0  0  0  0  0  0  0  0  0  0  0  0
   -0.4330   -0.7500    0.0000 C   0  0  0  0  0  0  0  0  0  0  0  0
   -0.0448   -2.1989    0.0000 Cl  0  0  0  0  0  0  0  0  0  0  0  0
    4.1520    8.5893    0.0000 H   0  0  0  0  0  0  0  0  0  0  0  0
    5.2127    6.7522    0.0000 H   0  0  0  0  0  0  0  0  0  0  0  0
    2.3149    7.5286    0.0000 H   0  0  0  0  0  0  0  0  0  0  0  0
    4.8245    5.3033    0.0000 H   0  0  0  0  0  0  0  0  0  0  0  0
    1.9267    6.0798    0.0000 H   0  0  0  0  0  0  0  0  0  0  0  0
    4.5388    3.8102    0.0000 H   0  0  0  0  0  0  0  0  0  0  0  0
    6.1693    3.1820    0.0000 H   0  0  0  0  0  0  0  0  0  0  0  0
    7.2300    0.0000    0.0000 H   0  0  0  0  0  0  0  0  0  0  0  0
    7.2300    2.1213    0.0000 H   0  0  0  0  0  0  0  0  0  0  0  0
    5.2459   -0.1214    0.0000 H   0  0  0  0  0  0  0  0  0  0  0  0
    3.1245    2.2427    0.0000 H   0  0  0  0  0  0  0  0  0  0  0  0
    4.9715   -0.1214    0.0000 H   0  0  0  0  0  0  0  0  0  0  0  0
    4.0480   -1.0607    0.0000 H   0  0  0  0  0  0  0  0  0  0  0  0
    2.9873   -2.1213    0.0000 H   0  0  0  0  0  0  0  0  0  0  0  0
    0.8660   -2.1213    0.0000 H   0  0  0  0  0  0  0  0  0  0  0  0
    2.0481    3.0448    0.0000 H   0  0  0  0  0  0  0  0  0  0  0  0
   -0.4198    1.3488    0.0000 H   0  0  0  0  0  0  0  0  0  0  0  0
    0.8660    4.2426    0.0000 H   0  0  0  0  0  0  0  0  0  0  0  0
   -1.2553    2.1213    0.0000 H   0  0  0  0  0  0  0  0  0  0  0  0
   -0.8671    5.6915    0.0000 H   0  0  0  0  0  0  0  0  0  0  0  0
   -2.7042    3.8544    0.0000 H   0  0  0  0  0  0  0  0  0  0  0  0
   -1.1054    3.2595    0.0000 H   0  0  0  0  0  0  0  0  0  0  0  0
    1.1687    3.0807    0.0000 H   0  0  0  0  0  0  0  0  0  0  0  0
   -4.7093   -1.7605    0.0000 H   0  0  0  0  0  0  0  0  0  0  0  0
   -2.7190   -2.9095    0.0000 H   0  0  0  0  0  0  0  0  0  0  0  0
  1  2  1  0
  2  3  1  0
  3  4  1  0
  4  5  1  0
  4  6  1  0
  6  7  1  0
  6  8  1  0
  8  9  1  0
  9 10  1  0
 10 11  1  0
 11 12  1  0
 12 13  1  0
 12 14  1  0
 14 15  1  0
 15 16  1  0
 11 17  1  0
 17 18  1  0
 17 19  1  0
 19 20  1  0
 19 21  1  0
 21 22  1  0
 22 23  1  0
 23 24  1  0
 24 25  1  0
 12  9  1  0
 24 17  1  0
 24 11  1  0
 23 19  1  0
 23 21  1  0
  1 26  1  0
  1 27  1  0
  1 28  1  0
  2 29  1  0
  2 30  1  0
  4 31  1  0
  6 32  1  0
  7 33  1  0
  7 34  1  0
  7 35  1  0
  8 36  1  0
  8 37  1  0
  9 38  1  0
 10 39  1  0
 10 40  1  0
 14 41  1  0
 14 42  1  0
 15 43  1  0
 15 44  1  0
 16 45  1  0
 16 46  1  0
 18 47  1  0
 18 48  1  0
 22 49  1  0
 22 50  1  0
M  END
$$$$
