
     RDKit          2D

115124  0  0  0  0  0  0  0  0999 V2000
   -7.5243    1.9008    0.0000 C   0  0  0  0  0  0  0  0  0  0  0  0
   -8.9543    2.3536    0.0000 C   0  0  0  0  0  0  0  0  0  0  0  0
   -9.6453    3.6850    0.0000 C   0  0  0  0  0  0  0  0  0  0  0  0
   -8.3139    4.3760    0.0000 C   0  0  0  0  0  0  0  0  0  0  0  0
   -6.9825    5.0669    0.0000 C   0  0  0  0  0  0  0  0  0  0  0  0
  -10.9766    2.9941    0.0000 C   0  0  0  0  0  0  0  0  0  0  0  0
  -10.2857    1.6627    0.0000 C   0  0  0  0  0  0  0  0  0  0  0  0
  -11.6170    0.9717    0.0000 C   0  0  0  0  0  0  0  0  0  0  0  0
  -12.9484    0.2807    0.0000 C   0  0  0  0  0  0  0  0  0  0  0  0
  -10.9261   -0.3597    0.0000 C   0  0  0  0  0  0  0  0  0  0  0  0
  -10.2351   -1.6910    0.0000 C   0  0  0  0  0  0  0  0  0  0  0  0
   -9.2482   -0.5614    0.0000 C   0  0  0  0  0  0  0  0  0  0  0  0
   -7.8689    0.0281    0.0000 C   0  0  0  0  0  0  0  0  0  0  0  0
   -6.3704   -0.0392    0.0000 C   0  0  0  0  0  0  0  0  0  0  0  0
   -5.2557   -0.4657    0.0000 C   0  0  0  0  0  0  0  0  0  0  0  0
   -7.4081   -1.5954    0.0000 C   0  0  0  0  0  0  0  0  0  0  0  0
   -2.6081   -1.4697    0.0000 C   0  0  0  0  0  0  0  0  0  0  0  0
   -1.3147   -1.9635    0.0000 C   0  0  0  0  0  0  0  0  0  0  0  0
   -2.7413   -2.4271    0.0000 C   0  0  0  0  0  0  0  0  0  0  0  0
   -3.9000   -3.4394    0.0000 C   0  0  0  0  0  0  0  0  0  0  0  0
   -4.2991   -4.8854    0.0000 C   0  0  0  0  0  0  0  0  0  0  0  0
   -5.2860   -6.0150    0.0000 C   0  0  0  0  0  0  0  0  0  0  0  0
   -5.2411   -7.5143    0.0000 C   0  0  0  0  0  0  0  0  0  0  0  0
   -4.6861   -8.9079    0.0000 C   0  0  0  0  0  0  0  0  0  0  0  0
   -3.7568   -7.7305    0.0000 C   0  0  0  0  0  0  0  0  0  0  0  0
   -2.4359   -8.4413    0.0000 C   0  0  0  0  0  0  0  0  0  0  0  0
   -6.6653   -6.6045    0.0000 C   0  0  0  0  0  0  0  0  0  0  0  0
   -8.1638   -6.5372    0.0000 C   0  0  0  0  0  0  0  0  0  0  0  0
   -9.4847   -5.8264    0.0000 C   0  0  0  0  0  0  0  0  0  0  0  0
  -10.3663   -4.6129    0.0000 C   0  0  0  0  0  0  0  0  0  0  0  0
  -11.7784   -4.1069    0.0000 C   0  0  0  0  0  0  0  0  0  0  0  0
  -12.5219   -5.4097    0.0000 C   0  0  0  0  0  0  0  0  0  0  0  0
  -13.2654   -6.7124    0.0000 C   0  0  0  0  0  0  0  0  0  0  0  0
  -10.6342   -3.1370    0.0000 C   0  0  0  0  0  0  0  0  0  0  0  0
   -4.1679   -1.9635    0.0000 C   0  0  0  0  0  0  0  0  0  0  0  0
   -5.0495   -0.7500    0.0000 C   0  0  0  0  0  0  0  0  0  0  0  0
   -5.0495    0.7500    0.0000 C   0  0  0  0  0  0  0  0  0  0  0  0
   -5.9312    1.9635    0.0000 C   0  0  0  0  0  0  0  0  0  0  0  0
   -4.1679    1.9635    0.0000 C   0  0  0  0  0  0  0  0  0  0  0  0
   -2.7413    2.4271    0.0000 C   0  0  0  0  0  0  0  0  0  0  0  0
   -1.3147    1.9635    0.0000 C   0  0  0  0  0  0  0  0  0  0  0  0
    0.1771    2.1203    0.0000 C   0  0  0  0  0  0  0  0  0  0  0  0
   -0.4330    0.7500    0.0000 C   0  0  0  0  0  0  0  0  0  0  0  0
    0.8660    0.0000    0.0000 C   0  0  0  0  0  0  0  0  0  0  0  0
   -0.4330   -0.7500    0.0000 C   0  0  0  0  0  0  0  0  0  0  0  0
   -6.4171    2.9128    0.0000 H   0  0  0  0  0  0  0  0  0  0  0  0
   -7.3824    0.4075    0.0000 H   0  0  0  0  0  0  0  0  0  0  0  0
  -10.3362    5.0164    0.0000 H   0  0  0  0  0  0  0  0  0  0  0  0
   -9.0048    5.7074    0.0000 H   0  0  0  0  0  0  0  0  0  0  0  0
   -7.4658    3.1388    0.0000 H   0  0  0  0  0  0  0  0  0  0  0  0
   -5.6511    5.7579    0.0000 H   0  0  0  0  0  0  0  0  0  0  0  0
   -7.6735    6.3983    0.0000 H   0  0  0  0  0  0  0  0  0  0  0  0
   -6.2915    3.7356    0.0000 H   0  0  0  0  0  0  0  0  0  0  0  0
  -11.6676    4.3254    0.0000 H   0  0  0  0  0  0  0  0  0  0  0  0
  -12.3823    2.4705    0.0000 H   0  0  0  0  0  0  0  0  0  0  0  0
  -11.2783    2.7873    0.0000 H   0  0  0  0  0  0  0  0  0  0  0  0
  -12.4651    2.2089    0.0000 H   0  0  0  0  0  0  0  0  0  0  0  0
  -14.2798   -0.4102    0.0000 H   0  0  0  0  0  0  0  0  0  0  0  0
  -13.6394    1.6121    0.0000 H   0  0  0  0  0  0  0  0  0  0  0  0
  -12.4249   -1.1249    0.0000 H   0  0  0  0  0  0  0  0  0  0  0  0
   -9.6889    0.4884    0.0000 H   0  0  0  0  0  0  0  0  0  0  0  0
  -12.1633   -1.2078    0.0000 H   0  0  0  0  0  0  0  0  0  0  0  0
  -11.7349   -1.6648    0.0000 H   0  0  0  0  0  0  0  0  0  0  0  0
   -9.2931    0.9379    0.0000 H   0  0  0  0  0  0  0  0  0  0  0  0
  -10.4959    0.2712    0.0000 H   0  0  0  0  0  0  0  0  0  0  0  0
   -7.0963    1.3138    0.0000 H   0  0  0  0  0  0  0  0  0  0  0  0
   -8.7835    1.2170    0.0000 H   0  0  0  0  0  0  0  0  0  0  0  0
   -6.5162    1.4537    0.0000 H   0  0  0  0  0  0  0  0  0  0  0  0
   -6.3013   -2.9169    0.0000 H   0  0  0  0  0  0  0  0  0  0  0  0
   -8.9027   -1.7229    0.0000 H   0  0  0  0  0  0  0  0  0  0  0  0
   -7.2806   -3.0900    0.0000 H   0  0  0  0  0  0  0  0  0  0  0  0
   -8.0629   -0.2459    0.0000 H   0  0  0  0  0  0  0  0  0  0  0  0
   -5.3438   -3.2495    0.0000 H   0  0  0  0  0  0  0  0  0  0  0  0
   -3.7743   -3.3078    0.0000 H   0  0  0  0  0  0  0  0  0  0  0  0
   -0.4330   -3.1771    0.0000 H   0  0  0  0  0  0  0  0  0  0  0  0
   -2.3783   -3.8825    0.0000 H   0  0  0  0  0  0  0  0  0  0  0  0
   -2.4209   -3.6889    0.0000 H   0  0  0  0  0  0  0  0  0  0  0  0
   -3.3065   -6.0100    0.0000 H   0  0  0  0  0  0  0  0  0  0  0  0
   -2.7993   -4.9116    0.0000 H   0  0  0  0  0  0  0  0  0  0  0  0
   -3.8739   -6.5210    0.0000 H   0  0  0  0  0  0  0  0  0  0  0  0
   -6.6618   -7.9956    0.0000 H   0  0  0  0  0  0  0  0  0  0  0  0
   -5.9622   -9.6964    0.0000 H   0  0  0  0  0  0  0  0  0  0  0  0
   -3.8320  -10.1409    0.0000 H   0  0  0  0  0  0  0  0  0  0  0  0
   -2.9555   -6.4624    0.0000 H   0  0  0  0  0  0  0  0  0  0  0  0
   -1.1150   -9.1521    0.0000 H   0  0  0  0  0  0  0  0  0  0  0  0
   -2.9804   -9.8390    0.0000 H   0  0  0  0  0  0  0  0  0  0  0  0
   -1.7251   -7.1204    0.0000 H   0  0  0  0  0  0  0  0  0  0  0  0
   -7.2754   -7.9748    0.0000 H   0  0  0  0  0  0  0  0  0  0  0  0
   -5.9024   -7.8960    0.0000 H   0  0  0  0  0  0  0  0  0  0  0  0
   -9.1813   -7.6394    0.0000 H   0  0  0  0  0  0  0  0  0  0  0  0
   -7.8556   -8.0052    0.0000 H   0  0  0  0  0  0  0  0  0  0  0  0
  -10.8796   -6.3779    0.0000 H   0  0  0  0  0  0  0  0  0  0  0  0
   -9.8440   -7.2827    0.0000 H   0  0  0  0  0  0  0  0  0  0  0  0
  -11.4057   -5.6945    0.0000 H   0  0  0  0  0  0  0  0  0  0  0  0
  -12.9323   -3.1484    0.0000 H   0  0  0  0  0  0  0  0  0  0  0  0
  -13.7243   -4.5129    0.0000 H   0  0  0  0  0  0  0  0  0  0  0  0
  -13.9056   -4.8305    0.0000 H   0  0  0  0  0  0  0  0  0  0  0  0
  -14.0090   -8.0152    0.0000 H   0  0  0  0  0  0  0  0  0  0  0  0
  -14.5682   -5.9689    0.0000 H   0  0  0  0  0  0  0  0  0  0  0  0
  -11.9627   -7.4559    0.0000 H   0  0  0  0  0  0  0  0  0  0  0  0
  -11.9873   -2.4896    0.0000 H   0  0  0  0  0  0  0  0  0  0  0  0
   -4.1565   -3.4635    0.0000 H   0  0  0  0  0  0  0  0  0  0  0  0
   -6.3334    0.0256    0.0000 H   0  0  0  0  0  0  0  0  0  0  0  0
   -6.5459    0.6454    0.0000 H   0  0  0  0  0  0  0  0  0  0  0  0
   -6.6584    3.2755    0.0000 H   0  0  0  0  0  0  0  0  0  0  0  0
   -4.8342    2.9866    0.0000 H   0  0  0  0  0  0  0  0  0  0  0  0
   -7.1447    1.0818    0.0000 H   0  0  0  0  0  0  0  0  0  0  0  0
   -3.9850    3.4523    0.0000 H   0  0  0  0  0  0  0  0  0  0  0  0
   -5.4399    2.7585    0.0000 H   0  0  0  0  0  0  0  0  0  0  0  0
   -2.7413    3.9271    0.0000 H   0  0  0  0  0  0  0  0  0  0  0  0
   -1.1579    3.4553    0.0000 H   0  0  0  0  0  0  0  0  0  0  0  0
    1.3906    3.0020    0.0000 H   0  0  0  0  0  0  0  0  0  0  0  0
    1.8302    1.1491    0.0000 H   0  0  0  0  0  0  0  0  0  0  0  0
    1.8302   -1.1491    0.0000 H   0  0  0  0  0  0  0  0  0  0  0  0
    0.5707   -1.8647    0.0000 H   0  0  0  0  0  0  0  0  0  0  0  0
  1  2  2  3
  2  3  1  0
  3  4  1  0
  4  5  1  0
  3  6  1  0
  6  7  1  0
  7  8  1  0
  8  9  1  0
  8 10  1  0
 10 11  1  0
 11 12  1  0
 12 13  1  0
 13 14  1  0
 14 15  1  0
 15 16  1  0
 15 17  1  0
 17 18  1  0
 18 19  1  0
 19 20  1  0
 20 21  1  0
 21 22  1  0
 22 23  1  0
 23 24  1  0
 24 25  1  0
 25 26  1  0
 22 27  1  0
 27 28  1  0
 28 29  1  0
 29 30  1  0
 30 31  1  0
 31 32  1  0
 32 33  1  0
 31 34  1  0
 20 35  1  0
 35 36  1  0
 36 37  1  0
 37 38  1  0
 37 39  1  0
 39 40  1  0
 40 41  1  0
 41 42  1  0
 42 43  1  0
 43 44  1  0
 44 45  1  0
  7  2  1  0
 34 11  1  0
 42 40  1  0
 45 43  1  0
 36 14  1  0
 43 41  1  0
 45 18  1  0
 35 19  1  0
 25 23  1  0
 34 30  1  0
  1 46  1  0
  1 47  1  0
  3 48  1  0
  4 49  1  0
  4 50  1  0
  5 51  1  0
  5 52  1  0
  5 53  1  0
  6 54  1  0
  6 55  1  0
  7 56  1  0
  8 57  1  0
  9 58  1  0
  9 59  1  0
  9 60  1  0
 10 61  1  0
 10 62  1  0
 11 63  1  0
 12 64  1  0
 12 65  1  0
 13 66  1  0
 13 67  1  0
 14 68  1  0
 15 69  1  0
 16 70  1  0
 16 71  1  0
 16 72  1  0
 17 73  1  0
 17 74  1  0
 18 75  1  0
 19 76  1  0
 20 77  1  0
 21 78  1  0
 21 79  1  0
 22 80  1  0
 23 81  1  0
 24 82  1  0
 24 83  1  0
 25 84  1  0
 26 85  1  0
 26 86  1  0
 26 87  1  0
 27 88  1  0
 27 89  1  0
 28 90  1  0
 28 91  1  0
 29 92  1  0
 29 93  1  0
 30 94  1  0
 31 95  1  0
 32 96  1  0
 32 97  1  0
 33 98  1  0
 33 99  1  0
 33100  1  0
 34101  1  0
 35102  1  0
 36103  1  0
 37104  1  0
 38105  1  0
 38106  1  0
 38107  1  0
 39108  1  0
 39109  1  0
 40110  1  0
 41111  1  0
 42112  1  0
 44113  1  0
 44114  1  0
 45115  1  0
M  END
$$$$
