
     RDKit          2D

 75 80  0  0  0  0  0  0  0  0999 V2000
   -6.9521    0.0265    0.0000 C   0  0  0  0  0  0  0  0  0  0  0  0
   -5.5032   -0.3618    0.0000 C   0  0  0  0  0  0  0  0  0  0  0  0
   -4.0543   -0.7500    0.0000 C   0  0  0  0  0  0  0  0  0  0  0  0
   -4.0543    0.7500    0.0000 C   0  0  0  0  0  0  0  0  0  0  0  0
   -2.9937    1.8107    0.0000 C   0  0  0  0  0  0  0  0  0  0  0  0
   -1.4937    1.8107    0.0000 C   0  0  0  0  0  0  0  0  0  0  0  0
   -0.4330    0.7500    0.0000 C   0  0  0  0  0  0  0  0  0  0  0  0
    0.4801    1.9400    0.0000 C   0  0  0  0  0  0  0  0  0  0  0  0
    1.3933    3.1301    0.0000 C   0  0  0  0  0  0  0  0  0  0  0  0
    2.3064    4.3201    0.0000 C   0  0  0  0  0  0  0  0  0  0  0  0
    3.5715    5.1260    0.0000 C   0  0  0  0  0  0  0  0  0  0  0  0
    3.6369    3.6275    0.0000 C   0  0  0  0  0  0  0  0  0  0  0  0
    5.1241    3.4317    0.0000 C   0  0  0  0  0  0  0  0  0  0  0  0
    6.6113    3.2359    0.0000 C   0  0  0  0  0  0  0  0  0  0  0  0
    8.0984    3.0401    0.0000 C   0  0  0  0  0  0  0  0  0  0  0  0
    9.0116    4.2301    0.0000 C   0  0  0  0  0  0  0  0  0  0  0  0
    9.5856    2.8443    0.0000 C   0  0  0  0  0  0  0  0  0  0  0  0
    8.6725    1.6543    0.0000 C   0  0  0  0  0  0  0  0  0  0  0  0
    0.8660    0.0000    0.0000 C   0  0  0  0  0  0  0  0  0  0  0  0
   -0.4330   -0.7500    0.0000 C   0  0  0  0  0  0  0  0  0  0  0  0
    0.4801   -1.9400    0.0000 O   0  0  0  0  0  0  0  0  0  0  0  0
   -1.4937   -1.8107    0.0000 C   0  0  0  0  0  0  0  0  0  0  0  0
   -1.5198   -3.3104    0.0000 F   0  0  0  0  0  0  0  0  0  0  0  0
   -2.9937   -1.8107    0.0000 C   0  0  0  0  0  0  0  0  0  0  0  0
   -5.8915   -1.8107    0.0000 C   0  0  0  0  0  0  0  0  0  0  0  0
   -4.3972   -1.9414    0.0000 C   0  0  0  0  0  0  0  0  0  0  0  0
   -3.7632   -3.3009    0.0000 C   0  0  0  0  0  0  0  0  0  0  0  0
   -4.6236   -4.5296    0.0000 C   0  0  0  0  0  0  0  0  0  0  0  0
   -6.1179   -4.3988    0.0000 C   0  0  0  0  0  0  0  0  0  0  0  0
   -6.7518   -3.0394    0.0000 C   0  0  0  0  0  0  0  0  0  0  0  0
   -8.2461   -2.9087    0.0000 C   0  0  0  0  0  0  0  0  0  0  0  0
   -9.7404   -2.7779    0.0000 O   0  0  0  0  0  0  0  0  0  0  0  0
   -8.4010    0.4147    0.0000 H   0  0  0  0  0  0  0  0  0  0  0  0
   -6.5639    1.4753    0.0000 H   0  0  0  0  0  0  0  0  0  0  0  0
   -7.6794   -1.2854    0.0000 H   0  0  0  0  0  0  0  0  0  0  0  0
   -5.2945    1.1236    0.0000 H   0  0  0  0  0  0  0  0  0  0  0  0
   -4.3658   -1.4838    0.0000 H   0  0  0  0  0  0  0  0  0  0  0  0
   -4.9571    1.9479    0.0000 H   0  0  0  0  0  0  0  0  0  0  0  0
   -5.5461    0.9069    0.0000 H   0  0  0  0  0  0  0  0  0  0  0  0
   -2.7850    3.2961    0.0000 H   0  0  0  0  0  0  0  0  0  0  0  0
   -4.1916    2.7134    0.0000 H   0  0  0  0  0  0  0  0  0  0  0  0
   -0.2957    2.7134    0.0000 H   0  0  0  0  0  0  0  0  0  0  0  0
   -1.7024    3.2961    0.0000 H   0  0  0  0  0  0  0  0  0  0  0  0
    1.7726    1.1788    0.0000 H   0  0  0  0  0  0  0  0  0  0  0  0
   -0.5897    2.9914    0.0000 H   0  0  0  0  0  0  0  0  0  0  0  0
    2.4631    2.0787    0.0000 H   0  0  0  0  0  0  0  0  0  0  0  0
    0.2032    4.0432    0.0000 H   0  0  0  0  0  0  0  0  0  0  0  0
    1.2930    5.4260    0.0000 H   0  0  0  0  0  0  0  0  0  0  0  0
    2.9975    6.5119    0.0000 H   0  0  0  0  0  0  0  0  0  0  0  0
    4.9854    5.6268    0.0000 H   0  0  0  0  0  0  0  0  0  0  0  0
    3.3636    2.1526    0.0000 H   0  0  0  0  0  0  0  0  0  0  0  0
    4.9283    1.9445    0.0000 H   0  0  0  0  0  0  0  0  0  0  0  0
    5.4997    4.8839    0.0000 H   0  0  0  0  0  0  0  0  0  0  0  0
    6.4155    1.7487    0.0000 H   0  0  0  0  0  0  0  0  0  0  0  0
    6.8071    4.7231    0.0000 H   0  0  0  0  0  0  0  0  0  0  0  0
    7.9982    5.3360    0.0000 H   0  0  0  0  0  0  0  0  0  0  0  0
   10.2767    5.0361    0.0000 H   0  0  0  0  0  0  0  0  0  0  0  0
   11.0728    2.6485    0.0000 H   0  0  0  0  0  0  0  0  0  0  0  0
    9.6858    0.5484    0.0000 H   0  0  0  0  0  0  0  0  0  0  0  0
    7.4074    0.8483    0.0000 H   0  0  0  0  0  0  0  0  0  0  0  0
    1.9631    1.0230    0.0000 H   0  0  0  0  0  0  0  0  0  0  0  0
    1.8302   -1.1491    0.0000 H   0  0  0  0  0  0  0  0  0  0  0  0
    0.0793   -3.3855    0.0000 H   0  0  0  0  0  0  0  0  0  0  0  0
   -0.2957   -2.7134    0.0000 H   0  0  0  0  0  0  0  0  0  0  0  0
   -3.9376   -2.9765    0.0000 H   0  0  0  0  0  0  0  0  0  0  0  0
   -2.6054   -3.2595    0.0000 H   0  0  0  0  0  0  0  0  0  0  0  0
   -7.2509   -1.1767    0.0000 H   0  0  0  0  0  0  0  0  0  0  0  0
   -2.8974   -1.9153    0.0000 H   0  0  0  0  0  0  0  0  0  0  0  0
   -4.1624   -0.4599    0.0000 H   0  0  0  0  0  0  0  0  0  0  0  0
   -2.3450   -3.7893    0.0000 H   0  0  0  0  0  0  0  0  0  0  0  0
   -3.9897   -5.8890    0.0000 H   0  0  0  0  0  0  0  0  0  0  0  0
   -6.9783   -5.6276    0.0000 H   0  0  0  0  0  0  0  0  0  0  0  0
   -8.3768   -4.4029    0.0000 H   0  0  0  0  0  0  0  0  0  0  0  0
   -8.4808   -1.4271    0.0000 H   0  0  0  0  0  0  0  0  0  0  0  0
  -10.6008   -4.0066    0.0000 H   0  0  0  0  0  0  0  0  0  0  0  0
  1  2  1  0
  2  3  1  0
  3  4  1  0
  4  5  1  0
  5  6  1  0
  6  7  1  0
  7  8  1  0
  8  9  1  0
  9 10  1  0
 10 11  1  0
 11 12  1  0
 12 13  1  0
 13 14  1  0
 14 15  1  0
 15 16  1  0
 16 17  1  0
 17 18  1  0
  7 19  1  0
 19 20  1  0
 20 21  1  0
 20 22  1  0
 22 23  1  0
 22 24  1  0
  2 25  1  0
 25 26  1  0
 26 27  1  0
 27 28  2  0
 28 29  1  0
 29 30  2  0
 30 31  1  0
 31 32  1  0
 24  3  1  0
 30 25  1  0
 20  7  1  0
 12 10  1  0
 17 15  1  0
 18 15  1  0
  1 33  1  0
  1 34  1  0
  1 35  1  0
  2 36  1  0
  3 37  1  0
  4 38  1  0
  4 39  1  0
  5 40  1  0
  5 41  1  0
  6 42  1  0
  6 43  1  0
  8 44  1  0
  8 45  1  0
  9 46  1  0
  9 47  1  0
 10 48  1  0
 11 49  1  0
 11 50  1  0
 12 51  1  0
 13 52  1  0
 13 53  1  0
 14 54  1  0
 14 55  1  0
 16 56  1  0
 16 57  1  0
 17 58  1  0
 18 59  1  0
 18 60  1  0
 19 61  1  0
 19 62  1  0
 21 63  1  0
 22 64  1  0
 24 65  1  0
 24 66  1  0
 25 67  1  0
 26 68  1  0
 26 69  1  0
 27 70  1  0
 28 71  1  0
 29 72  1  0
 31 73  1  0
 31 74  1  0
 32 75  1  0
M  END
$$$$
