
     RDKit          3D

 32 36  0  0  0  0  0  0  0  0999 V2000
   24.3791  -18.6390  -15.4574 C   0  0  0  0  0  0  0  0  0  0  0  0
   24.5654  -20.1632  -13.2320 C   0  0  0  0  0  0  0  0  0  0  0  0
   21.4011  -16.9563  -16.2534 O   0  0  0  0  0  0  0  0  0  0  0  0
   22.4645  -21.6349  -13.7860 C   0  0  0  0  0  0  0  0  0  0  0  0
   26.7262  -22.7299  -11.3672 C   0  0  0  0  0  0  0  0  0  0  0  0
   28.4058  -23.5704  -10.3191 C   0  0  0  0  0  0  0  0  0  0  0  0
   23.0444  -16.9539  -16.8508 C   0  0  0  0  0  0  0  0  0  0  0  0
   28.5418  -23.2142  -11.6770 C   0  0  0  0  0  0  0  0  0  0  0  0
   28.7559  -25.0558  -11.4908 C   0  0  0  0  0  0  0  0  0  0  0  0
   22.8817  -17.1913  -19.0261 C   0  0  0  0  0  0  0  0  0  0  0  0
   16.1505  -28.6215  -18.3274 C   0  0  0  0  0  0  0  0  0  0  0  0
   22.1728  -20.0126  -13.0150 C   0  0  0  0  0  0  0  0  0  0  0  0
   23.6123  -20.6972  -16.5662 C   0  0  0  0  0  0  0  0  0  0  0  0
   20.4336  -18.7159  -13.4419 C   0  0  0  0  0  0  0  0  0  0  0  0
   23.4015  -20.1044  -12.0584 C   0  0  0  0  0  0  0  0  0  0  0  0
   19.7552  -19.0122  -15.9915 C   0  0  0  0  0  0  0  0  0  0  0  0
   20.4965  -23.9852  -16.1971 C   0  0  0  0  0  0  0  0  0  0  0  0
   18.4088  -26.2279  -18.2503 C   0  0  0  0  0  0  0  0  0  0  0  0
   16.1358  -18.6818  -17.6092 C   0  0  0  0  0  0  0  0  0  0  0  0
   22.6126  -22.4382  -16.8580 C   0  0  0  0  0  0  0  0  0  0  0  0
   15.7948  -26.4978  -18.3857 C   0  0  0  0  0  0  0  0  0  0  0  0
   14.3092  -27.8203  -19.1036 C   0  0  0  0  0  0  0  0  0  0  0  0
   21.0705  -27.3392  -18.3251 C   0  0  0  0  0  0  0  0  0  0  0  0
   21.2126  -25.4551  -17.5585 N   0  0  0  0  0  0  0  0  0  0  0  0
   19.2731  -28.6256  -19.0775 C   0  0  0  0  0  0  0  0  0  0  0  0
   23.9018  -23.9061  -16.5848 C   0  0  0  0  0  0  0  0  0  0  0  0
   22.2771  -27.9928  -16.4114 C   0  0  0  0  0  0  0  0  0  0  0  0
   19.7374  -22.3214  -16.1753 C   0  0  0  0  0  0  0  0  0  0  0  0
   20.9230  -22.9940  -17.3993 C   0  0  0  0  0  0  0  0  0  0  0  0
   18.2045  -24.2025  -16.9448 C   0  0  0  0  0  0  0  0  0  0  0  0
   11.8874  -28.6565  -18.4231 C   0  0  0  0  0  0  0  0  0  0  0  0
   21.7547  -23.6563  -15.4486 C   0  0  0  0  0  0  0  0  0  0  0  0
  2  1  1  0
  4  2  1  0
  5  2  1  0
  6  5  1  0
  7  1  1  0
  7  3  1  0
  8  5  1  0
  8  6  1  0
  9  6  1  0
  9  8  1  0
 10  7  1  0
 12  4  1  0
 14 12  1  0
 15  2  1  0
 15 12  1  0
 16 14  1  0
 18 17  1  0
 19 16  1  0
 20 13  1  0
 20 17  1  0
 22 11  1  0
 22 21  1  0
 25 11  1  0
 25 23  1  0
 26 13  1  0
 27 23  1  0
 27 24  1  0
 28  4  1  0
 29 17  1  0
 29 26  1  0
 29 28  1  0
 30 21  1  0
 30 28  1  0
 31 22  1  0
 32 20  1  0
 32 24  1  0
M  END
$$$$
