
     RDKit          2D

 63 69  0  0  0  0  0  0  0  0999 V2000
  -12.6766   -2.1684    0.0000 C   0  0  0  0  0  0  0  0  0  0  0  0
  -11.5276   -1.2042    0.0000 C   0  0  0  0  0  0  0  0  0  0  0  0
  -11.7881    0.2730    0.0000 C   0  0  0  0  0  0  0  0  0  0  0  0
  -10.3785    0.7860    0.0000 C   0  0  0  0  0  0  0  0  0  0  0  0
   -8.9690    1.2990    0.0000 C   0  0  0  0  0  0  0  0  0  0  0  0
   -7.4690    1.2990    0.0000 C   0  0  0  0  0  0  0  0  0  0  0  0
   -6.7190   -0.0000    0.0000 C   0  0  0  0  0  0  0  0  0  0  0  0
   -5.2190    0.0000    0.0000 C   0  0  0  0  0  0  0  0  0  0  0  0
   -3.7190    0.0000    0.0000 N   0  0  0  0  0  0  0  0  0  0  0  0
   -3.0682    1.3515    0.0000 N   0  0  0  0  0  0  0  0  0  0  0  0
   -1.6058    1.6852    0.0000 C   0  0  0  0  0  0  0  0  0  0  0  0
   -0.4330    0.7500    0.0000 C   0  0  0  0  0  0  0  0  0  0  0  0
    0.8660    0.0000    0.0000 C   0  0  0  0  0  0  0  0  0  0  0  0
   -0.4330   -0.7500    0.0000 C   0  0  0  0  0  0  0  0  0  0  0  0
    1.0670   -0.7500    0.0000 C   0  0  0  0  0  0  0  0  0  0  0  0
    1.0670    0.7500    0.0000 C   0  0  0  0  0  0  0  0  0  0  0  0
    1.0670    2.2500    0.0000 C   0  0  0  0  0  0  0  0  0  0  0  0
   -1.6058   -1.6852    0.0000 C   0  0  0  0  0  0  0  0  0  0  0  0
   -0.5855   -2.7848    0.0000 C   0  0  0  0  0  0  0  0  0  0  0  0
    0.4348   -3.8844    0.0000 C   0  0  0  0  0  0  0  0  0  0  0  0
    1.0174   -5.2666    0.0000 C   0  0  0  0  0  0  0  0  0  0  0  0
   -0.4709   -5.0801    0.0000 C   0  0  0  0  0  0  0  0  0  0  0  0
   -2.6260   -2.7848    0.0000 C   0  0  0  0  0  0  0  0  0  0  0  0
   -3.0682   -1.3515    0.0000 C   0  0  0  0  0  0  0  0  0  0  0  0
   -8.7085    2.7762    0.0000 C   0  0  0  0  0  0  0  0  0  0  0  0
   -9.8576    3.7404    0.0000 C   0  0  0  0  0  0  0  0  0  0  0  0
  -11.2671    3.2274    0.0000 C   0  0  0  0  0  0  0  0  0  0  0  0
  -11.5276    1.7502    0.0000 N   0  0  0  0  0  0  0  0  0  0  0  0
  -12.4162   -3.6456    0.0000 H   0  0  0  0  0  0  0  0  0  0  0  0
  -14.0862   -1.6554    0.0000 H   0  0  0  0  0  0  0  0  0  0  0  0
  -10.1180   -1.7173    0.0000 H   0  0  0  0  0  0  0  0  0  0  0  0
  -13.2881    0.2730    0.0000 H   0  0  0  0  0  0  0  0  0  0  0  0
   -9.8655   -0.6235    0.0000 H   0  0  0  0  0  0  0  0  0  0  0  0
   -8.7085   -0.1782    0.0000 H   0  0  0  0  0  0  0  0  0  0  0  0
   -6.5662    2.4970    0.0000 H   0  0  0  0  0  0  0  0  0  0  0  0
   -7.4690   -1.2990    0.0000 H   0  0  0  0  0  0  0  0  0  0  0  0
   -5.4018   -1.4888    0.0000 H   0  0  0  0  0  0  0  0  0  0  0  0
   -5.2190    1.5000    0.0000 H   0  0  0  0  0  0  0  0  0  0  0  0
   -4.0034    2.5242    0.0000 H   0  0  0  0  0  0  0  0  0  0  0  0
   -2.2566    3.0367    0.0000 H   0  0  0  0  0  0  0  0  0  0  0  0
   -0.5558    2.7564    0.0000 H   0  0  0  0  0  0  0  0  0  0  0  0
    1.9631    1.0230    0.0000 H   0  0  0  0  0  0  0  0  0  0  0  0
    1.4490   -0.5436    0.0000 H   0  0  0  0  0  0  0  0  0  0  0  0
    2.2729   -0.8981    0.0000 H   0  0  0  0  0  0  0  0  0  0  0  0
    1.2498   -2.2388    0.0000 H   0  0  0  0  0  0  0  0  0  0  0  0
    2.5558    0.9328    0.0000 H   0  0  0  0  0  0  0  0  0  0  0  0
    1.0670    3.7500    0.0000 H   0  0  0  0  0  0  0  0  0  0  0  0
    2.5670    2.2500    0.0000 H   0  0  0  0  0  0  0  0  0  0  0  0
   -0.4218    2.4328    0.0000 H   0  0  0  0  0  0  0  0  0  0  0  0
   -1.6851   -3.8051    0.0000 H   0  0  0  0  0  0  0  0  0  0  0  0
    0.6302   -1.9062    0.0000 H   0  0  0  0  0  0  0  0  0  0  0  0
    1.6948   -3.0706    0.0000 H   0  0  0  0  0  0  0  0  0  0  0  0
    2.4798   -4.9328    0.0000 H   0  0  0  0  0  0  0  0  0  0  0  0
    1.0922   -6.7647    0.0000 H   0  0  0  0  0  0  0  0  0  0  0  0
   -0.9131   -6.5134    0.0000 H   0  0  0  0  0  0  0  0  0  0  0  0
   -1.9317   -4.7391    0.0000 H   0  0  0  0  0  0  0  0  0  0  0  0
   -2.0366   -4.1641    0.0000 H   0  0  0  0  0  0  0  0  0  0  0  0
   -3.9608   -3.4691    0.0000 H   0  0  0  0  0  0  0  0  0  0  0  0
   -4.3872   -2.0656    0.0000 H   0  0  0  0  0  0  0  0  0  0  0  0
   -7.9585    4.0753    0.0000 H   0  0  0  0  0  0  0  0  0  0  0  0
   -7.2469    2.4389    0.0000 H   0  0  0  0  0  0  0  0  0  0  0  0
   -9.5971    5.2176    0.0000 H   0  0  0  0  0  0  0  0  0  0  0  0
  -12.4162    4.1916    0.0000 H   0  0  0  0  0  0  0  0  0  0  0  0
  1  2  2  3
  2  3  1  0
  3  4  1  0
  4  5  1  0
  5  6  1  0
  6  7  2  3
  7  8  1  0
  8  9  1  0
  9 10  1  0
 10 11  1  0
 12 11  1  1
 12 13  1  0
 14 13  1  1
 14 15  1  0
 15 16  1  0
 16 17  1  0
 14 18  1  0
 18 19  1  1
 19 20  1  0
 20 21  1  0
 21 22  1  0
 18 23  1  0
 23 24  1  0
  5 25  1  0
 25 26  1  0
 26 27  2  0
 27 28  1  0
 28  3  1  0
 28  4  1  0
 24  9  1  0
 14 12  1  0
 24 18  1  0
 16 12  1  0
 22 20  1  0
  1 29  1  0
  1 30  1  0
  2 31  1  0
  3 32  1  6
  4 33  1  6
  5 34  1  1
  6 35  1  0
  7 36  1  0
  8 37  1  0
  8 38  1  0
 10 39  1  0
 11 40  1  0
 11 41  1  0
 13 42  1  0
 13 43  1  0
 15 44  1  0
 15 45  1  0
 16 46  1  6
 17 47  1  0
 17 48  1  0
 17 49  1  0
 19 50  1  0
 19 51  1  0
 20 52  1  0
 21 53  1  0
 21 54  1  0
 22 55  1  0
 22 56  1  0
 23 57  1  0
 23 58  1  0
 24 59  1  1
 25 60  1  0
 25 61  1  0
 26 62  1  0
 27 63  1  0
M  END
$$$$
