
     RDKit          2D

 90 93  0  0  0  0  0  0  0  0999 V2000
   -9.7500   -3.4952    0.0000 C   0  0  0  0  0  0  0  0  0  0  0  0
   -8.2500   -3.4952    0.0000 C   0  0  0  0  0  0  0  0  0  0  0  0
   -6.7500   -3.4952    0.0000 C   0  0  0  0  0  0  0  0  0  0  0  0
   -5.2500   -3.4952    0.0000 C   0  0  0  0  0  0  0  0  0  0  0  0
   -3.7500   -3.4952    0.0000 C   0  0  0  0  0  0  0  0  0  0  0  0
   -2.2500   -3.4952    0.0000 C   0  0  0  0  0  0  0  0  0  0  0  0
   -0.7500   -3.4952    0.0000 C   0  0  0  0  0  0  0  0  0  0  0  0
    0.7500   -3.4952    0.0000 C   0  0  0  0  0  0  0  0  0  0  0  0
    2.2500   -3.4952    0.0000 C   0  0  0  0  0  0  0  0  0  0  0  0
    3.7500   -3.4952    0.0000 C   0  0  0  0  0  0  0  0  0  0  0  0
    5.2500   -3.4952    0.0000 C   0  0  0  0  0  0  0  0  0  0  0  0
    6.7500   -3.4952    0.0000 C   0  0  0  0  0  0  0  0  0  0  0  0
    8.1595   -2.9822    0.0000 C   0  0  0  0  0  0  0  0  0  0  0  0
    7.0105   -2.0180    0.0000 S   0  0  0  0  0  0  0  0  0  0  0  0
    5.2500   -4.9952    0.0000 C   0  0  0  0  0  0  0  0  0  0  0  0
    6.7500   -4.9952    0.0000 N   0  0  0  0  0  0  0  0  0  0  0  0
    5.2500   -6.4952    0.0000 C   0  0  0  0  0  0  0  0  0  0  0  0
    5.2500   -7.9952    0.0000 C   0  0  0  0  0  0  0  0  0  0  0  0
    6.7500   -6.4952    0.0000 O   0  0  0  0  0  0  0  0  0  0  0  0
    7.5000   -7.7942    0.0000 C   0  0  0  0  0  0  0  0  0  0  0  0
    8.2500   -9.0933    0.0000 C   0  0  0  0  0  0  0  0  0  0  0  0
    9.0000  -10.3923    0.0000 C   0  0  0  0  0  0  0  0  0  0  0  0
    9.7500  -11.6913    0.0000 C   0  0  0  0  0  0  0  0  0  0  0  0
    9.0000  -12.9904    0.0000 C   0  0  0  0  0  0  0  0  0  0  0  0
    9.7500  -14.2894    0.0000 C   0  0  0  0  0  0  0  0  0  0  0  0
   11.2500  -14.2894    0.0000 C   0  0  0  0  0  0  0  0  0  0  0  0
   12.0000  -12.9904    0.0000 C   0  0  0  0  0  0  0  0  0  0  0  0
   11.2500  -11.6913    0.0000 C   0  0  0  0  0  0  0  0  0  0  0  0
    8.7990   -7.0442    0.0000 O   0  0  0  0  0  0  0  0  0  0  0  0
   10.0981   -7.7942    0.0000 C   0  0  0  0  0  0  0  0  0  0  0  0
   11.3971   -8.5442    0.0000 C   0  0  0  0  0  0  0  0  0  0  0  0
   12.6962   -9.2942    0.0000 O   0  0  0  0  0  0  0  0  0  0  0  0
   10.6471   -9.8433    0.0000 O   0  0  0  0  0  0  0  0  0  0  0  0
   -6.7500   -1.9952    0.0000 C   0  0  0  0  0  0  0  0  0  0  0  0
   -6.7500   -0.4952    0.0000 C   0  0  0  0  0  0  0  0  0  0  0  0
   -8.0490    0.2548    0.0000 C   0  0  0  0  0  0  0  0  0  0  0  0
   -6.7500    1.0048    0.0000 N   0  0  0  0  0  0  0  0  0  0  0  0
   -5.4510    0.2548    0.0000 C   0  0  0  0  0  0  0  0  0  0  0  0
  -11.2500   -3.4952    0.0000 H   0  0  0  0  0  0  0  0  0  0  0  0
   -9.7500   -4.9952    0.0000 H   0  0  0  0  0  0  0  0  0  0  0  0
   -9.7500   -1.9952    0.0000 H   0  0  0  0  0  0  0  0  0  0  0  0
   -8.2500   -4.9952    0.0000 H   0  0  0  0  0  0  0  0  0  0  0  0
   -8.4328   -2.0064    0.0000 H   0  0  0  0  0  0  0  0  0  0  0  0
   -6.7500   -4.9952    0.0000 H   0  0  0  0  0  0  0  0  0  0  0  0
   -5.2500   -4.9952    0.0000 H   0  0  0  0  0  0  0  0  0  0  0  0
   -5.0672   -2.0064    0.0000 H   0  0  0  0  0  0  0  0  0  0  0  0
   -3.7500   -1.9952    0.0000 H   0  0  0  0  0  0  0  0  0  0  0  0
   -3.7500   -4.9952    0.0000 H   0  0  0  0  0  0  0  0  0  0  0  0
   -2.2500   -1.9952    0.0000 H   0  0  0  0  0  0  0  0  0  0  0  0
   -2.2500   -4.9952    0.0000 H   0  0  0  0  0  0  0  0  0  0  0  0
   -0.7500   -1.9952    0.0000 H   0  0  0  0  0  0  0  0  0  0  0  0
   -0.7500   -4.9952    0.0000 H   0  0  0  0  0  0  0  0  0  0  0  0
    0.7500   -1.9952    0.0000 H   0  0  0  0  0  0  0  0  0  0  0  0
    0.7500   -4.9952    0.0000 H   0  0  0  0  0  0  0  0  0  0  0  0
    2.2500   -4.9952    0.0000 H   0  0  0  0  0  0  0  0  0  0  0  0
    2.2500   -1.9952    0.0000 H   0  0  0  0  0  0  0  0  0  0  0  0
    3.5672   -4.9840    0.0000 H   0  0  0  0  0  0  0  0  0  0  0  0
    3.7500   -1.9952    0.0000 H   0  0  0  0  0  0  0  0  0  0  0  0
    5.2500   -1.9952    0.0000 H   0  0  0  0  0  0  0  0  0  0  0  0
    7.0743   -4.2234    0.0000 H   0  0  0  0  0  0  0  0  0  0  0  0
    8.9095   -4.2812    0.0000 H   0  0  0  0  0  0  0  0  0  0  0  0
    9.3086   -2.0180    0.0000 H   0  0  0  0  0  0  0  0  0  0  0  0
    3.7612   -5.1780    0.0000 H   0  0  0  0  0  0  0  0  0  0  0  0
    7.7920   -3.9162    0.0000 H   0  0  0  0  0  0  0  0  0  0  0  0
    7.7920   -6.0741    0.0000 H   0  0  0  0  0  0  0  0  0  0  0  0
    3.7500   -6.4952    0.0000 H   0  0  0  0  0  0  0  0  0  0  0  0
    5.2500   -9.4952    0.0000 H   0  0  0  0  0  0  0  0  0  0  0  0
    3.7500   -7.9952    0.0000 H   0  0  0  0  0  0  0  0  0  0  0  0
    6.6503   -8.5329    0.0000 H   0  0  0  0  0  0  0  0  0  0  0  0
    6.3021   -8.6970    0.0000 H   0  0  0  0  0  0  0  0  0  0  0  0
    9.7316   -8.8587    0.0000 H   0  0  0  0  0  0  0  0  0  0  0  0
    6.9510   -9.8433    0.0000 H   0  0  0  0  0  0  0  0  0  0  0  0
   10.4419   -9.9789    0.0000 H   0  0  0  0  0  0  0  0  0  0  0  0
    7.7010  -11.1423    0.0000 H   0  0  0  0  0  0  0  0  0  0  0  0
    7.5000  -12.9904    0.0000 H   0  0  0  0  0  0  0  0  0  0  0  0
    9.0000  -15.5885    0.0000 H   0  0  0  0  0  0  0  0  0  0  0  0
   12.0000  -15.5885    0.0000 H   0  0  0  0  0  0  0  0  0  0  0  0
   13.5000  -12.9904    0.0000 H   0  0  0  0  0  0  0  0  0  0  0  0
   12.0000  -10.3923    0.0000 H   0  0  0  0  0  0  0  0  0  0  0  0
    9.5120   -9.1750    0.0000 H   0  0  0  0  0  0  0  0  0  0  0  0
   10.8481   -6.4952    0.0000 H   0  0  0  0  0  0  0  0  0  0  0  0
   12.1471   -7.2452    0.0000 H   0  0  0  0  0  0  0  0  0  0  0  0
   13.9952   -8.5442    0.0000 H   0  0  0  0  0  0  0  0  0  0  0  0
   11.6892  -10.9222    0.0000 H   0  0  0  0  0  0  0  0  0  0  0  0
   -8.2388   -1.8123    0.0000 H   0  0  0  0  0  0  0  0  0  0  0  0
   -5.2612   -1.8123    0.0000 H   0  0  0  0  0  0  0  0  0  0  0  0
   -9.0132   -0.8943    0.0000 H   0  0  0  0  0  0  0  0  0  0  0  0
   -9.0132    1.4039    0.0000 H   0  0  0  0  0  0  0  0  0  0  0  0
   -4.4868    1.4039    0.0000 H   0  0  0  0  0  0  0  0  0  0  0  0
   -4.4868   -0.8943    0.0000 H   0  0  0  0  0  0  0  0  0  0  0  0
  1  2  1  0
  2  3  1  0
  3  4  1  0
  4  5  1  0
  5  6  1  0
  6  7  1  0
  7  8  1  0
  8  9  1  0
  9 10  1  0
 10 11  1  0
 11 12  1  0
 12 13  1  0
 13 14  1  0
 11 15  1  0
 15 16  1  0
 15 17  1  0
 17 18  1  0
 17 19  1  0
 19 20  1  0
 20 21  1  0
 21 22  1  0
 22 23  1  0
 23 24  2  0
 24 25  1  0
 25 26  2  0
 26 27  1  0
 27 28  2  0
 20 29  1  0
 29 30  1  0
 30 31  1  0
 31 32  1  0
 31 33  1  0
  3 34  1  0
 34 35  1  0
 35 36  1  0
 36 37  1  0
 37 38  1  0
 14 12  1  0
 28 23  1  0
 37 35  1  0
 38 35  1  0
  1 39  1  0
  1 40  1  0
  1 41  1  0
  2 42  1  0
  2 43  1  0
  3 44  1  0
  4 45  1  0
  4 46  1  0
  5 47  1  0
  5 48  1  0
  6 49  1  0
  6 50  1  0
  7 51  1  0
  7 52  1  0
  8 53  1  0
  8 54  1  0
  9 55  1  0
  9 56  1  0
 10 57  1  0
 10 58  1  0
 11 59  1  0
 12 60  1  0
 13 61  1  0
 13 62  1  0
 15 63  1  0
 16 64  1  0
 16 65  1  0
 17 66  1  0
 18 67  1  0
 18 68  1  0
 18 69  1  0
 20 70  1  0
 21 71  1  0
 21 72  1  0
 22 73  1  0
 22 74  1  0
 24 75  1  0
 25 76  1  0
 26 77  1  0
 27 78  1  0
 28 79  1  0
 30 80  1  0
 30 81  1  0
 31 82  1  0
 32 83  1  0
 33 84  1  0
 34 85  1  0
 34 86  1  0
 36 87  1  0
 36 88  1  0
 38 89  1  0
 38 90  1  0
M  END
$$$$
