
     RDKit          2D

 31 34  0  0  0  0  0  0  0  0999 V2000
   -3.0369    3.9446    0.0000 C   0  0  0  0  0  0  0  0  0  0  0  0
   -4.4464    4.4577    0.0000 C   0  0  0  0  0  0  0  0  0  0  0  0
   -5.8560    4.9707    0.0000 C   0  0  0  0  0  0  0  0  0  0  0  0
   -7.0050    5.9349    0.0000 N   0  0  0  0  0  0  0  0  0  0  0  0
   -5.5955    6.4479    0.0000 C   0  0  0  0  0  0  0  0  0  0  0  0
   -4.6313    7.5970    0.0000 O   0  0  0  0  0  0  0  0  0  0  0  0
   -4.9595    3.0481    0.0000 C   0  0  0  0  0  0  0  0  0  0  0  0
   -4.9595    1.5481    0.0000 C   0  0  0  0  0  0  0  0  0  0  0  0
   -6.4367    1.2877    0.0000 F   0  0  0  0  0  0  0  0  0  0  0  0
   -3.6604    2.2981    0.0000 C   0  0  0  0  0  0  0  0  0  0  0  0
   -2.6962    1.1491    0.0000 C   0  0  0  0  0  0  0  0  0  0  0  0
   -1.7321    0.0000    0.0000 C   0  0  0  0  0  0  0  0  0  0  0  0
   -0.4330    0.7500    0.0000 C   0  0  0  0  0  0  0  0  0  0  0  0
    0.8660    0.0000    0.0000 C   0  0  0  0  0  0  0  0  0  0  0  0
   -0.4330   -0.7500    0.0000 C   0  0  0  0  0  0  0  0  0  0  0  0
   -1.8952    3.5291    0.0000 H   0  0  0  0  0  0  0  0  0  0  0  0
   -2.5239    5.3542    0.0000 H   0  0  0  0  0  0  0  0  0  0  0  0
   -3.1202    3.1518    0.0000 H   0  0  0  0  0  0  0  0  0  0  0  0
   -3.9334    5.8672    0.0000 H   0  0  0  0  0  0  0  0  0  0  0  0
   -6.5872    4.0004    0.0000 H   0  0  0  0  0  0  0  0  0  0  0  0
   -8.4822    6.1954    0.0000 H   0  0  0  0  0  0  0  0  0  0  0  0
   -6.1728    3.1117    0.0000 H   0  0  0  0  0  0  0  0  0  0  0  0
   -4.6221    0.0866    0.0000 H   0  0  0  0  0  0  0  0  0  0  0  0
   -2.8642    2.8766    0.0000 H   0  0  0  0  0  0  0  0  0  0  0  0
   -1.5472    2.1132    0.0000 H   0  0  0  0  0  0  0  0  0  0  0  0
   -3.7192    0.0520    0.0000 H   0  0  0  0  0  0  0  0  0  0  0  0
   -2.6962   -1.1491    0.0000 H   0  0  0  0  0  0  0  0  0  0  0  0
   -0.4330    2.2500    0.0000 H   0  0  0  0  0  0  0  0  0  0  0  0
    1.8302    1.1491    0.0000 H   0  0  0  0  0  0  0  0  0  0  0  0
    1.8302   -1.1491    0.0000 H   0  0  0  0  0  0  0  0  0  0  0  0
   -0.4330   -2.2500    0.0000 H   0  0  0  0  0  0  0  0  0  0  0  0
  1  2  1  0
  2  3  1  0
  3  4  1  0
  4  5  1  0
  5  6  2  0
  2  7  1  0
  7  8  1  0
  8  9  1  0
  8 10  1  0
 10 11  1  0
 11 12  1  0
 12 13  1  0
 13 14  1  0
 14 15  1  0
  5  3  1  0
 10  7  1  0
 15 12  1  0
 15 13  1  0
  1 16  1  0
  1 17  1  0
  1 18  1  0
  2 19  1  0
  3 20  1  0
  4 21  1  0
  7 22  1  0
  8 23  1  0
 10 24  1  0
 11 25  1  0
 11 26  1  0
 12 27  1  0
 13 28  1  0
 14 29  1  0
 14 30  1  0
 15 31  1  0
M  END
$$$$
