
     RDKit          2D

 94106  0  0  0  0  0  0  0  0999 V2000
    1.5572    5.6972    0.0000 C   0  0  0  0  0  0  0  0  0  0  0  0
    3.0344    5.9577    0.0000 C   0  0  0  0  0  0  0  0  0  0  0  0
    3.9986    4.8086    0.0000 C   0  0  0  0  0  0  0  0  0  0  0  0
    4.5117    3.3991    0.0000 C   0  0  0  0  0  0  0  0  0  0  0  0
    3.5475    2.2500    0.0000 C   0  0  0  0  0  0  0  0  0  0  0  0
    2.2484    1.5000    0.0000 C   0  0  0  0  0  0  0  0  0  0  0  0
    3.0344    3.6595    0.0000 C   0  0  0  0  0  0  0  0  0  0  0  0
    1.5572    3.9200    0.0000 C   0  0  0  0  0  0  0  0  0  0  0  0
    0.0800    3.6595    0.0000 C   0  0  0  0  0  0  0  0  0  0  0  0
   -0.4330    2.2500    0.0000 C   0  0  0  0  0  0  0  0  0  0  0  0
   -0.4330    0.7500    0.0000 C   0  0  0  0  0  0  0  0  0  0  0  0
    0.8660    0.0000    0.0000 C   0  0  0  0  0  0  0  0  0  0  0  0
   -0.4330   -0.7500    0.0000 C   0  0  0  0  0  0  0  0  0  0  0  0
   -1.7321   -1.5000    0.0000 C   0  0  0  0  0  0  0  0  0  0  0  0
   -3.0311   -2.2500    0.0000 C   0  0  0  0  0  0  0  0  0  0  0  0
   -2.0669   -3.3991    0.0000 C   0  0  0  0  0  0  0  0  0  0  0  0
   -1.1027   -4.5481    0.0000 O   0  0  0  0  0  0  0  0  0  0  0  0
   -1.6158   -5.9577    0.0000 C   0  0  0  0  0  0  0  0  0  0  0  0
   -0.5098   -6.9711    0.0000 N   0  0  0  0  0  0  0  0  0  0  0  0
   -0.4444   -8.4696    0.0000 C   0  0  0  0  0  0  0  0  0  0  0  0
    0.9862   -8.0186    0.0000 N   0  0  0  0  0  0  0  0  0  0  0  0
    1.9995   -6.9127    0.0000 C   0  0  0  0  0  0  0  0  0  0  0  0
    2.4506   -8.3432    0.0000 C   0  0  0  0  0  0  0  0  0  0  0  0
    3.9378   -8.1474    0.0000 C   0  0  0  0  0  0  0  0  0  0  0  0
    2.3852   -9.8418    0.0000 C   0  0  0  0  0  0  0  0  0  0  0  0
   -1.4578   -9.5755    0.0000 C   0  0  0  0  0  0  0  0  0  0  0  0
   -2.8173  -10.2095    0.0000 C   0  0  0  0  0  0  0  0  0  0  0  0
   -3.4512   -8.8500    0.0000 C   0  0  0  0  0  0  0  0  0  0  0  0
   -4.1277   -7.1290    0.0000 C   0  0  0  0  0  0  0  0  0  0  0  0
   -3.1143   -6.0231    0.0000 C   0  0  0  0  0  0  0  0  0  0  0  0
   -3.7483   -4.6636    0.0000 C   0  0  0  0  0  0  0  0  0  0  0  0
   -2.0917   -8.2161    0.0000 C   0  0  0  0  0  0  0  0  0  0  0  0
   -1.5787   -6.8065    0.0000 C   0  0  0  0  0  0  0  0  0  0  0  0
   -4.3301   -1.5000    0.0000 C   0  0  0  0  0  0  0  0  0  0  0  0
   -4.3301    0.0000    0.0000 C   0  0  0  0  0  0  0  0  0  0  0  0
   -5.0801    1.2990    0.0000 C   0  0  0  0  0  0  0  0  0  0  0  0
   -3.7811    2.0490    0.0000 C   0  0  0  0  0  0  0  0  0  0  0  0
   -4.1693    3.4979    0.0000 C   0  0  0  0  0  0  0  0  0  0  0  0
   -2.2811    2.0490    0.0000 C   0  0  0  0  0  0  0  0  0  0  0  0
   -0.8715    1.5360    0.0000 O   0  0  0  0  0  0  0  0  0  0  0  0
   -3.0311    0.7500    0.0000 C   0  0  0  0  0  0  0  0  0  0  0  0
   -1.7321    0.0000    0.0000 C   0  0  0  0  0  0  0  0  0  0  0  0
    1.0442    2.5105    0.0000 C   0  0  0  0  0  0  0  0  0  0  0  0
    2.0084    1.3614    0.0000 C   0  0  0  0  0  0  0  0  0  0  0  0
    0.7184    4.4537    0.0000 H   0  0  0  0  0  0  0  0  0  0  0  0
    0.5930    6.8463    0.0000 H   0  0  0  0  0  0  0  0  0  0  0  0
    3.5475    7.3672    0.0000 H   0  0  0  0  0  0  0  0  0  0  0  0
    5.2977    5.5586    0.0000 H   0  0  0  0  0  0  0  0  0  0  0  0
    5.9889    3.1386    0.0000 H   0  0  0  0  0  0  0  0  0  0  0  0
    4.5117    1.1009    0.0000 H   0  0  0  0  0  0  0  0  0  0  0  0
    3.1512    0.3021    0.0000 H   0  0  0  0  0  0  0  0  0  0  0  0
    1.2064    2.5790    0.0000 H   0  0  0  0  0  0  0  0  0  0  0  0
    1.3045    0.3342    0.0000 H   0  0  0  0  0  0  0  0  0  0  0  0
    1.1943    5.3754    0.0000 H   0  0  0  0  0  0  0  0  0  0  0  0
   -0.8842    4.8086    0.0000 H   0  0  0  0  0  0  0  0  0  0  0  0
   -1.8033    2.8602    0.0000 H   0  0  0  0  0  0  0  0  0  0  0  0
    1.8302    1.1491    0.0000 H   0  0  0  0  0  0  0  0  0  0  0  0
    1.8302   -1.1491    0.0000 H   0  0  0  0  0  0  0  0  0  0  0  0
   -0.8293   -2.6979    0.0000 H   0  0  0  0  0  0  0  0  0  0  0  0
   -3.9953   -3.3991    0.0000 H   0  0  0  0  0  0  0  0  0  0  0  0
   -0.8089   -2.5821    0.0000 H   0  0  0  0  0  0  0  0  0  0  0  0
   -3.4151   -4.0566    0.0000 H   0  0  0  0  0  0  0  0  0  0  0  0
    0.3615   -9.7347    0.0000 H   0  0  0  0  0  0  0  0  0  0  0  0
    1.0864   -5.7226    0.0000 H   0  0  0  0  0  0  0  0  0  0  0  0
    3.2357   -6.0630    0.0000 H   0  0  0  0  0  0  0  0  0  0  0  0
    4.3134   -9.5997    0.0000 H   0  0  0  0  0  0  0  0  0  0  0  0
    3.9247   -6.6475    0.0000 H   0  0  0  0  0  0  0  0  0  0  0  0
    5.4249   -7.9517    0.0000 H   0  0  0  0  0  0  0  0  0  0  0  0
    3.8646  -10.0894    0.0000 H   0  0  0  0  0  0  0  0  0  0  0  0
    0.8898   -9.9595    0.0000 H   0  0  0  0  0  0  0  0  0  0  0  0
    2.3198  -11.3404    0.0000 H   0  0  0  0  0  0  0  0  0  0  0  0
   -0.1213  -10.2566    0.0000 H   0  0  0  0  0  0  0  0  0  0  0  0
   -4.1767  -10.8434    0.0000 H   0  0  0  0  0  0  0  0  0  0  0  0
   -2.1833  -11.5689    0.0000 H   0  0  0  0  0  0  0  0  0  0  0  0
   -4.8607   -8.3370    0.0000 H   0  0  0  0  0  0  0  0  0  0  0  0
   -4.9337   -5.8639    0.0000 H   0  0  0  0  0  0  0  0  0  0  0  0
   -5.5583   -7.5801    0.0000 H   0  0  0  0  0  0  0  0  0  0  0  0
   -5.2425   -4.5329    0.0000 H   0  0  0  0  0  0  0  0  0  0  0  0
   -2.8879   -3.4349    0.0000 H   0  0  0  0  0  0  0  0  0  0  0  0
   -0.2084   -6.1964    0.0000 H   0  0  0  0  0  0  0  0  0  0  0  0
   -2.2362   -5.4583    0.0000 H   0  0  0  0  0  0  0  0  0  0  0  0
   -5.8281   -1.4215    0.0000 H   0  0  0  0  0  0  0  0  0  0  0  0
   -4.8432   -2.9095    0.0000 H   0  0  0  0  0  0  0  0  0  0  0  0
   -5.8155   -0.2087    0.0000 H   0  0  0  0  0  0  0  0  0  0  0  0
   -5.9829    2.4970    0.0000 H   0  0  0  0  0  0  0  0  0  0  0  0
   -6.3792    0.5490    0.0000 H   0  0  0  0  0  0  0  0  0  0  0  0
   -2.7786    4.0599    0.0000 H   0  0  0  0  0  0  0  0  0  0  0  0
   -5.6547    3.2892    0.0000 H   0  0  0  0  0  0  0  0  0  0  0  0
   -4.5575    4.9468    0.0000 H   0  0  0  0  0  0  0  0  0  0  0  0
   -1.8425    3.4835    0.0000 H   0  0  0  0  0  0  0  0  0  0  0  0
    0.2775    2.5002    0.0000 H   0  0  0  0  0  0  0  0  0  0  0  0
    3.3566    2.0189    0.0000 H   0  0  0  0  0  0  0  0  0  0  0  0
    0.9854    0.2643    0.0000 H   0  0  0  0  0  0  0  0  0  0  0  0
    2.8253    0.1034    0.0000 H   0  0  0  0  0  0  0  0  0  0  0  0
  1  2  2  0
  2  3  1  0
  3  4  1  0
  4  5  1  0
  5  6  1  0
  5  7  1  0
  7  8  1  0
  8  9  1  0
  9 10  1  0
 10 11  1  0
 11 12  1  0
 12 13  1  0
 13 14  1  0
 14 15  1  0
 15 16  1  0
 16 17  1  0
 17 18  1  0
 18 19  2  0
 19 20  1  0
 20 21  1  0
 21 22  1  0
 22 23  1  0
 23 24  1  0
 23 25  1  0
 20 26  1  0
 26 27  1  0
 27 28  1  0
 28 29  1  0
 29 30  1  0
 30 31  2  0
 28 32  1  0
 32 33  2  0
 15 34  1  0
 34 35  1  0
 35 36  1  0
 36 37  1  0
 37 38  1  0
 37 39  1  0
 39 40  1  0
 39 41  1  0
 41 42  1  0
 10 43  1  0
 43 44  1  0
  7  3  1  0
 43  8  1  0
  7  4  1  0
 43  9  1  0
 13 11  1  0
 42 14  1  0
 42 11  1  0
 42 13  1  0
 30 18  1  0
 41 35  1  0
 23 21  1  0
 32 26  1  0
 41 37  1  0
  1 45  1  0
  1 46  1  0
  2 47  1  0
  3 48  1  0
  4 49  1  0
  5 50  1  0
  6 51  1  0
  6 52  1  0
  6 53  1  0
  8 54  1  0
  9 55  1  0
 10 56  1  0
 12 57  1  0
 12 58  1  0
 14 59  1  0
 15 60  1  0
 16 61  1  0
 16 62  1  0
 20 63  1  0
 22 64  1  0
 22 65  1  0
 24 66  1  0
 24 67  1  0
 24 68  1  0
 25 69  1  0
 25 70  1  0
 25 71  1  0
 26 72  1  0
 27 73  1  0
 27 74  1  0
 28 75  1  0
 29 76  1  0
 29 77  1  0
 31 78  1  0
 31 79  1  0
 33 80  1  0
 33 81  1  0
 34 82  1  0
 34 83  1  0
 35 84  1  0
 36 85  1  0
 36 86  1  0
 38 87  1  0
 38 88  1  0
 38 89  1  0
 39 90  1  0
 40 91  1  0
 44 92  1  0
 44 93  1  0
 44 94  1  0
M  END
$$$$
