
     RDKit          2D

  7  7  0  0  0  0  0  0  0  0999 V2000
    2.3660    0.0000    0.0000 O   0  0  0  0  0  0  0  0  0  0  0  0
    0.8660    0.0000    0.0000 P   0  0  0  0  0  0  0  0  0  0  0  0
   -0.4330    0.7500    0.0000 O   0  0  0  0  0  0  0  0  0  0  0  0
   -0.4330   -0.7500    0.0000 P   0  0  0  0  0  0  0  0  0  0  0  0
   -1.1830   -2.0490    0.0000 O   0  0  0  0  0  0  0  0  0  0  0  0
    3.1160   -1.2990    0.0000 H   0  0  0  0  0  0  0  0  0  0  0  0
   -2.6830   -2.0490    0.0000 H   0  0  0  0  0  0  0  0  0  0  0  0
  1  2  1  0
  2  3  1  0
  3  4  1  0
  4  5  1  0
  4  2  1  0
  1  6  1  0
  5  7  1  0
M  END
$$$$
