
     RDKit          2D

109120  0  0  0  0  0  0  0  0999 V2000
    5.6603    5.0097    0.0000 C   0  0  0  0  0  0  0  0  0  0  0  0
    4.1961    4.6839    0.0000 C   0  0  0  0  0  0  0  0  0  0  0  0
    2.7319    4.3581    0.0000 C   0  0  0  0  0  0  0  0  0  0  0  0
    1.7389    3.2339    0.0000 C   0  0  0  0  0  0  0  0  0  0  0  0
    0.2747    2.9081    0.0000 C   0  0  0  0  0  0  0  0  0  0  0  0
   -1.1014    3.5051    0.0000 C   0  0  0  0  0  0  0  0  0  0  0  0
   -1.2440    2.0119    0.0000 C   0  0  0  0  0  0  0  0  0  0  0  0
   -0.4330    0.7500    0.0000 C   0  0  0  0  0  0  0  0  0  0  0  0
    0.8660    0.0000    0.0000 C   0  0  0  0  0  0  0  0  0  0  0  0
    1.8302    1.1491    0.0000 C   0  0  0  0  0  0  0  0  0  0  0  0
   -0.4330   -0.7500    0.0000 C   0  0  0  0  0  0  0  0  0  0  0  0
   -1.2440   -2.0119    0.0000 C   0  0  0  0  0  0  0  0  0  0  0  0
   -1.3866   -3.5051    0.0000 C   0  0  0  0  0  0  0  0  0  0  0  0
   -2.6084   -2.6350    0.0000 C   0  0  0  0  0  0  0  0  0  0  0  0
   -3.1659   -4.0276    0.0000 C   0  0  0  0  0  0  0  0  0  0  0  0
   -4.0932   -2.4215    0.0000 C   0  0  0  0  0  0  0  0  0  0  0  0
   -5.2268   -1.4392    0.0000 C   0  0  0  0  0  0  0  0  0  0  0  0
   -5.6494    0.0000    0.0000 C   0  0  0  0  0  0  0  0  0  0  0  0
   -5.2268    1.4392    0.0000 C   0  0  0  0  0  0  0  0  0  0  0  0
   -4.8042    0.0000    0.0000 C   0  0  0  0  0  0  0  0  0  0  0  0
   -4.0932    2.4215    0.0000 C   0  0  0  0  0  0  0  0  0  0  0  0
   -5.3922    3.1715    0.0000 C   0  0  0  0  0  0  0  0  0  0  0  0
   -6.6912    3.9215    0.0000 C   0  0  0  0  0  0  0  0  0  0  0  0
   -6.1422    1.8725    0.0000 C   0  0  0  0  0  0  0  0  0  0  0  0
   -2.6084    2.6350    0.0000 C   0  0  0  0  0  0  0  0  0  0  0  0
   -3.2958    3.9683    0.0000 C   0  0  0  0  0  0  0  0  0  0  0  0
   -4.7615    3.6494    0.0000 C   0  0  0  0  0  0  0  0  0  0  0  0
   -5.0803    5.1151    0.0000 O   0  0  0  0  0  0  0  0  0  0  0  0
   -3.6146    5.4340    0.0000 C   0  0  0  0  0  0  0  0  0  0  0  0
   -2.1858    4.9772    0.0000 C   0  0  0  0  0  0  0  0  0  0  0  0
   -1.4879    6.3050    0.0000 O   0  0  0  0  0  0  0  0  0  0  0  0
   -1.8637    4.7969    0.0000 C   0  0  0  0  0  0  0  0  0  0  0  0
   -1.7211    6.2901    0.0000 C   0  0  0  0  0  0  0  0  0  0  0  0
   -0.8743    7.4283    0.0000 C   0  0  0  0  0  0  0  0  0  0  0  0
   -0.0042    8.6502    0.0000 C   0  0  0  0  0  0  0  0  0  0  0  0
    0.6189    7.2857    0.0000 C   0  0  0  0  0  0  0  0  0  0  0  0
    2.1122    7.1431    0.0000 C   0  0  0  0  0  0  0  0  0  0  0  0
    2.8745    5.8513    0.0000 C   0  0  0  0  0  0  0  0  0  0  0  0
    1.4890    8.5076    0.0000 C   0  0  0  0  0  0  0  0  0  0  0  0
    2.3591    9.7295    0.0000 C   0  0  0  0  0  0  0  0  0  0  0  0
    1.7360   11.0939    0.0000 C   0  0  0  0  0  0  0  0  0  0  0  0
    3.2292   10.9513    0.0000 C   0  0  0  0  0  0  0  0  0  0  0  0
    4.0993   12.1732    0.0000 C   0  0  0  0  0  0  0  0  0  0  0  0
    3.8523    9.5869    0.0000 C   0  0  0  0  0  0  0  0  0  0  0  0
    5.3042    9.9636    0.0000 C   0  0  0  0  0  0  0  0  0  0  0  0
    7.1245    5.3356    0.0000 H   0  0  0  0  0  0  0  0  0  0  0  0
    5.9861    3.5456    0.0000 H   0  0  0  0  0  0  0  0  0  0  0  0
    5.3344    6.4739    0.0000 H   0  0  0  0  0  0  0  0  0  0  0  0
    4.2342    6.1834    0.0000 H   0  0  0  0  0  0  0  0  0  0  0  0
    4.5219    3.2197    0.0000 H   0  0  0  0  0  0  0  0  0  0  0  0
    3.6460    3.1688    0.0000 H   0  0  0  0  0  0  0  0  0  0  0  0
    3.1149    2.6368    0.0000 H   0  0  0  0  0  0  0  0  0  0  0  0
    2.1410    1.7888    0.0000 H   0  0  0  0  0  0  0  0  0  0  0  0
    0.8739    1.5329    0.0000 H   0  0  0  0  0  0  0  0  0  0  0  0
   -0.4168    1.5770    0.0000 H   0  0  0  0  0  0  0  0  0  0  0  0
   -2.5944    3.3602    0.0000 H   0  0  0  0  0  0  0  0  0  0  0  0
    0.2137    2.3655    0.0000 H   0  0  0  0  0  0  0  0  0  0  0  0
    0.7267    1.7013    0.0000 H   0  0  0  0  0  0  0  0  0  0  0  0
    1.8302   -1.1491    0.0000 H   0  0  0  0  0  0  0  0  0  0  0  0
    2.9273    2.1720    0.0000 H   0  0  0  0  0  0  0  0  0  0  0  0
    2.9793    0.1849    0.0000 H   0  0  0  0  0  0  0  0  0  0  0  0
    0.8072    2.2461    0.0000 H   0  0  0  0  0  0  0  0  0  0  0  0
    0.7267   -1.7013    0.0000 H   0  0  0  0  0  0  0  0  0  0  0  0
    0.1032   -2.6716    0.0000 H   0  0  0  0  0  0  0  0  0  0  0  0
    0.0592   -3.9048    0.0000 H   0  0  0  0  0  0  0  0  0  0  0  0
   -1.8613   -4.9280    0.0000 H   0  0  0  0  0  0  0  0  0  0  0  0
   -3.7234   -5.4201    0.0000 H   0  0  0  0  0  0  0  0  0  0  0  0
   -4.6520   -3.8236    0.0000 H   0  0  0  0  0  0  0  0  0  0  0  0
   -1.8517   -4.7506    0.0000 H   0  0  0  0  0  0  0  0  0  0  0  0
   -4.3561   -3.8983    0.0000 H   0  0  0  0  0  0  0  0  0  0  0  0
   -5.4739   -3.0076    0.0000 H   0  0  0  0  0  0  0  0  0  0  0  0
   -6.4887   -2.2502    0.0000 H   0  0  0  0  0  0  0  0  0  0  0  0
   -6.8712   -0.8701    0.0000 H   0  0  0  0  0  0  0  0  0  0  0  0
   -6.9682    0.7147    0.0000 H   0  0  0  0  0  0  0  0  0  0  0  0
   -6.6474    1.9208    0.0000 H   0  0  0  0  0  0  0  0  0  0  0  0
   -3.5823    0.8701    0.0000 H   0  0  0  0  0  0  0  0  0  0  0  0
   -3.5823   -0.8701    0.0000 H   0  0  0  0  0  0  0  0  0  0  0  0
   -4.1741    3.9193    0.0000 H   0  0  0  0  0  0  0  0  0  0  0  0
   -4.9788    4.6134    0.0000 H   0  0  0  0  0  0  0  0  0  0  0  0
   -7.9903    4.6715    0.0000 H   0  0  0  0  0  0  0  0  0  0  0  0
   -6.1052    5.3023    0.0000 H   0  0  0  0  0  0  0  0  0  0  0  0
   -6.4567    5.4031    0.0000 H   0  0  0  0  0  0  0  0  0  0  0  0
   -7.0449    0.6746    0.0000 H   0  0  0  0  0  0  0  0  0  0  0  0
   -7.3401    2.7752    0.0000 H   0  0  0  0  0  0  0  0  0  0  0  0
   -7.5230    2.4586    0.0000 H   0  0  0  0  0  0  0  0  0  0  0  0
   -1.7134    3.8387    0.0000 H   0  0  0  0  0  0  0  0  0  0  0  0
   -6.2608    3.6947    0.0000 H   0  0  0  0  0  0  0  0  0  0  0  0
   -4.8068    2.1501    0.0000 H   0  0  0  0  0  0  0  0  0  0  0  0
   -3.5432    6.9323    0.0000 H   0  0  0  0  0  0  0  0  0  0  0  0
   -0.7493    4.5456    0.0000 H   0  0  0  0  0  0  0  0  0  0  0  0
    0.0109    6.3645    0.0000 H   0  0  0  0  0  0  0  0  0  0  0  0
   -3.1937    4.1034    0.0000 H   0  0  0  0  0  0  0  0  0  0  0  0
   -3.1567    5.5572    0.0000 H   0  0  0  0  0  0  0  0  0  0  0  0
   -3.2048    6.5108    0.0000 H   0  0  0  0  0  0  0  0  0  0  0  0
   -2.6353    7.4794    0.0000 H   0  0  0  0  0  0  0  0  0  0  0  0
   -2.3045    6.9762    0.0000 H   0  0  0  0  0  0  0  0  0  0  0  0
   -0.6273   10.0146    0.0000 H   0  0  0  0  0  0  0  0  0  0  0  0
    3.5995    6.9487    0.0000 H   0  0  0  0  0  0  0  0  0  0  0  0
    3.8675    6.9755    0.0000 H   0  0  0  0  0  0  0  0  0  0  0  0
    4.3541    5.6050    0.0000 H   0  0  0  0  0  0  0  0  0  0  0  0
    0.2841   10.7172    0.0000 H   0  0  0  0  0  0  0  0  0  0  0  0
    1.6171   12.5892    0.0000 H   0  0  0  0  0  0  0  0  0  0  0  0
    4.9694   13.3950    0.0000 H   0  0  0  0  0  0  0  0  0  0  0  0
    5.4181   11.4585    0.0000 H   0  0  0  0  0  0  0  0  0  0  0  0
    2.8774   13.0433    0.0000 H   0  0  0  0  0  0  0  0  0  0  0  0
    3.9712    8.0916    0.0000 H   0  0  0  0  0  0  0  0  0  0  0  0
    6.7562   10.3403    0.0000 H   0  0  0  0  0  0  0  0  0  0  0  0
    5.6810    8.5117    0.0000 H   0  0  0  0  0  0  0  0  0  0  0  0
    5.1073   11.4506    0.0000 H   0  0  0  0  0  0  0  0  0  0  0  0
  1  2  1  0
  2  3  1  0
  3  4  1  0
  4  5  1  0
  5  6  1  0
  6  7  1  0
  7  8  1  0
  8  9  1  0
  9 10  1  0
  9 11  1  0
 11 12  1  0
 12 13  1  0
 13 14  1  0
 14 15  1  0
 14 16  1  0
 16 17  1  0
 17 18  1  0
 18 19  1  0
 19 20  1  0
 19 21  1  0
 21 22  1  0
 22 23  1  0
 22 24  1  0
 21 25  1  0
 25 26  1  0
 26 27  1  0
 27 28  1  0
 28 29  1  0
 29 30  1  0
 30 31  1  0
  6 32  1  0
 32 33  1  0
 33 34  1  0
 34 35  1  0
 35 36  1  0
 36 37  1  0
 37 38  1  0
 37 39  1  0
 39 40  1  0
 40 41  1  0
 41 42  1  0
 42 43  1  0
 42 44  1  0
 44 45  1  0
 38  3  1  0
 42 40  1  0
 25  7  1  0
 29 26  1  0
 36 34  1  0
 44 40  1  0
 11  8  1  0
 14 12  1  0
 20 17  1  0
 30 26  1  0
 39 35  1  0
 39 36  1  0
  1 46  1  0
  1 47  1  0
  1 48  1  0
  2 49  1  0
  2 50  1  0
  3 51  1  0
  4 52  1  0
  4 53  1  0
  5 54  1  0
  5 55  1  0
  6 56  1  0
  7 57  1  0
  8 58  1  0
  9 59  1  0
 10 60  1  0
 10 61  1  0
 10 62  1  0
 11 63  1  0
 12 64  1  0
 13 65  1  0
 13 66  1  0
 15 67  1  0
 15 68  1  0
 15 69  1  0
 16 70  1  0
 16 71  1  0
 17 72  1  0
 18 73  1  0
 18 74  1  0
 19 75  1  0
 20 76  1  0
 20 77  1  0
 21 78  1  0
 22 79  1  0
 23 80  1  0
 23 81  1  0
 23 82  1  0
 24 83  1  0
 24 84  1  0
 24 85  1  0
 25 86  1  0
 27 87  1  0
 27 88  1  0
 29 89  1  0
 30 90  1  0
 31 91  1  0
 32 92  1  0
 32 93  1  0
 33 94  1  0
 33 95  1  0
 34 96  1  0
 35 97  1  0
 37 98  1  0
 38 99  1  0
 38100  1  0
 41101  1  0
 41102  1  0
 43103  1  0
 43104  1  0
 43105  1  0
 44106  1  0
 45107  1  0
 45108  1  0
 45109  1  0
M  END
$$$$
