
     RDKit          2D

 97108  0  0  0  0  0  0  0  0999 V2000
    5.8250    9.5110    0.0000 C   0  0  0  0  0  0  0  0  0  0  0  0
    5.0112    8.2510    0.0000 C   0  0  0  0  0  0  0  0  0  0  0  0
    4.1974    6.9909    0.0000 C   0  0  0  0  0  0  0  0  0  0  0  0
    3.8636    5.5285    0.0000 C   0  0  0  0  0  0  0  0  0  0  0  0
    3.3156    4.1322    0.0000 C   0  0  0  0  0  0  0  0  0  0  0  0
    4.0656    2.8332    0.0000 C   0  0  0  0  0  0  0  0  0  0  0  0
    5.5488    2.6096    0.0000 C   0  0  0  0  0  0  0  0  0  0  0  0
    6.4396    1.4027    0.0000 C   0  0  0  0  0  0  0  0  0  0  0  0
    6.2160   -0.0805    0.0000 C   0  0  0  0  0  0  0  0  0  0  0  0
    7.7159   -0.0955    0.0000 F   0  0  0  0  0  0  0  0  0  0  0  0
    5.0091   -0.9713    0.0000 C   0  0  0  0  0  0  0  0  0  0  0  0
    3.5259   -0.7477    0.0000 C   0  0  0  0  0  0  0  0  0  0  0  0
    2.6351    0.4592    0.0000 C   0  0  0  0  0  0  0  0  0  0  0  0
    2.6351   -1.0408    0.0000 C   0  0  0  0  0  0  0  0  0  0  0  0
    3.5704   -2.2135    0.0000 C   0  0  0  0  0  0  0  0  0  0  0  0
    2.3976   -3.1488    0.0000 N   0  0  0  0  0  0  0  0  0  0  0  0
    2.2297   -4.6393    0.0000 C   0  0  0  0  0  0  0  0  0  0  0  0
    2.5817   -6.0975    0.0000 C   0  0  0  0  0  0  0  0  0  0  0  0
    3.6684   -5.0636    0.0000 C   0  0  0  0  0  0  0  0  0  0  0  0
    4.3361   -3.7203    0.0000 C   0  0  0  0  0  0  0  0  0  0  0  0
    5.0037   -2.3771    0.0000 C   0  0  0  0  0  0  0  0  0  0  0  0
    5.6713   -1.0339    0.0000 N   0  0  0  0  0  0  0  0  0  0  0  0
    1.4624   -1.9760    0.0000 C   0  0  0  0  0  0  0  0  0  0  0  0
   -0.0000   -1.0607    0.0000 C   0  0  0  0  0  0  0  0  0  0  0  0
    1.0607    0.0000    0.0000 O   0  0  0  0  0  0  0  0  0  0  0  0
    0.0000    1.0607    0.0000 C   0  0  0  0  0  0  0  0  0  0  0  0
   -1.0607    0.0000    0.0000 O   0  0  0  0  0  0  0  0  0  0  0  0
    1.4624    1.3944    0.0000 C   0  0  0  0  0  0  0  0  0  0  0  0
    2.8587    1.9425    0.0000 C   0  0  0  0  0  0  0  0  0  0  0  0
    4.1933    4.9549    0.0000 C   0  0  0  0  0  0  0  0  0  0  0  0
    5.2970    5.9707    0.0000 C   0  0  0  0  0  0  0  0  0  0  0  0
    6.5363    5.1257    0.0000 C   0  0  0  0  0  0  0  0  0  0  0  0
    7.8354    5.8757    0.0000 C   0  0  0  0  0  0  0  0  0  0  0  0
    6.7747    6.9363    0.0000 C   0  0  0  0  0  0  0  0  0  0  0  0
    6.7747    8.4363    0.0000 C   0  0  0  0  0  0  0  0  0  0  0  0
    7.8354    9.4970    0.0000 C   0  0  0  0  0  0  0  0  0  0  0  0
    9.3354    9.4970    0.0000 C   0  0  0  0  0  0  0  0  0  0  0  0
   10.7843    9.8852    0.0000 C   0  0  0  0  0  0  0  0  0  0  0  0
   12.2785    9.7545    0.0000 C   0  0  0  0  0  0  0  0  0  0  0  0
   13.7728    9.6238    0.0000 C   0  0  0  0  0  0  0  0  0  0  0  0
   10.3960    8.4363    0.0000 C   0  0  0  0  0  0  0  0  0  0  0  0
   10.3960    6.9363    0.0000 C   0  0  0  0  0  0  0  0  0  0  0  0
   11.8449    7.3246    0.0000 F   0  0  0  0  0  0  0  0  0  0  0  0
    9.3354    5.8757    0.0000 O   0  0  0  0  0  0  0  0  0  0  0  0
    6.6484    3.6299    0.0000 C   0  0  0  0  0  0  0  0  0  0  0  0
    4.5650   10.3248    0.0000 H   0  0  0  0  0  0  0  0  0  0  0  0
    7.2445    9.0263    0.0000 H   0  0  0  0  0  0  0  0  0  0  0  0
    6.4792   10.8608    0.0000 H   0  0  0  0  0  0  0  0  0  0  0  0
    3.7512    9.0648    0.0000 H   0  0  0  0  0  0  0  0  0  0  0  0
    6.4307    7.7662    0.0000 H   0  0  0  0  0  0  0  0  0  0  0  0
    2.8152    7.5736    0.0000 H   0  0  0  0  0  0  0  0  0  0  0  0
    2.4948    6.1421    0.0000 H   0  0  0  0  0  0  0  0  0  0  0  0
    2.0762    4.9772    0.0000 H   0  0  0  0  0  0  0  0  0  0  0  0
    2.2160    3.1120    0.0000 H   0  0  0  0  0  0  0  0  0  0  0  0
    4.1757    4.3291    0.0000 H   0  0  0  0  0  0  0  0  0  0  0  0
    5.2425    1.1412    0.0000 H   0  0  0  0  0  0  0  0  0  0  0  0
    7.8773    0.9749    0.0000 H   0  0  0  0  0  0  0  0  0  0  0  0
    7.5108    2.4527    0.0000 H   0  0  0  0  0  0  0  0  0  0  0  0
    6.9301   -1.3996    0.0000 H   0  0  0  0  0  0  0  0  0  0  0  0
    2.3037   -1.6173    0.0000 H   0  0  0  0  0  0  0  0  0  0  0  0
    3.8743   -2.2067    0.0000 H   0  0  0  0  0  0  0  0  0  0  0  0
    4.1288   -0.9027    0.0000 H   0  0  0  0  0  0  0  0  0  0  0  0
    4.7616   -3.1251    0.0000 H   0  0  0  0  0  0  0  0  0  0  0  0
    4.9346   -1.5899    0.0000 H   0  0  0  0  0  0  0  0  0  0  0  0
    0.7326   -4.7328    0.0000 H   0  0  0  0  0  0  0  0  0  0  0  0
    1.2068   -6.6973    0.0000 H   0  0  0  0  0  0  0  0  0  0  0  0
    3.4111   -7.3473    0.0000 H   0  0  0  0  0  0  0  0  0  0  0  0
    4.8753   -5.9543    0.0000 H   0  0  0  0  0  0  0  0  0  0  0  0
    3.1943   -2.7475    0.0000 H   0  0  0  0  0  0  0  0  0  0  0  0
    5.6793   -4.3880    0.0000 H   0  0  0  0  0  0  0  0  0  0  0  0
    3.7518   -1.5507    0.0000 H   0  0  0  0  0  0  0  0  0  0  0  0
    6.3469   -3.0447    0.0000 H   0  0  0  0  0  0  0  0  0  0  0  0
    7.1686   -1.1236    0.0000 H   0  0  0  0  0  0  0  0  0  0  0  0
    4.8418    0.2159    0.0000 H   0  0  0  0  0  0  0  0  0  0  0  0
    0.6643   -3.2461    0.0000 H   0  0  0  0  0  0  0  0  0  0  0  0
   -0.0000   -2.5607    0.0000 H   0  0  0  0  0  0  0  0  0  0  0  0
    0.0000    2.5607    0.0000 H   0  0  0  0  0  0  0  0  0  0  0  0
    1.0203    2.8278    0.0000 H   0  0  0  0  0  0  0  0  0  0  0  0
    3.8993    0.8621    0.0000 H   0  0  0  0  0  0  0  0  0  0  0  0
    3.0505    5.9265    0.0000 H   0  0  0  0  0  0  0  0  0  0  0  0
    3.3682    3.7022    0.0000 H   0  0  0  0  0  0  0  0  0  0  0  0
    8.3973    4.4849    0.0000 H   0  0  0  0  0  0  0  0  0  0  0  0
    5.3258    7.3246    0.0000 H   0  0  0  0  0  0  0  0  0  0  0  0
    5.7327    5.8574    0.0000 H   0  0  0  0  0  0  0  0  0  0  0  0
    5.5690    9.3286    0.0000 H   0  0  0  0  0  0  0  0  0  0  0  0
    7.4345   10.9425    0.0000 H   0  0  0  0  0  0  0  0  0  0  0  0
    9.1396   10.9842    0.0000 H   0  0  0  0  0  0  0  0  0  0  0  0
   10.6535   11.3795    0.0000 H   0  0  0  0  0  0  0  0  0  0  0  0
   12.4093   11.2488    0.0000 H   0  0  0  0  0  0  0  0  0  0  0  0
   12.3309    8.2554    0.0000 H   0  0  0  0  0  0  0  0  0  0  0  0
   13.9036   11.1181    0.0000 H   0  0  0  0  0  0  0  0  0  0  0  0
   13.6421    8.1295    0.0000 H   0  0  0  0  0  0  0  0  0  0  0  0
   15.2671    9.4930    0.0000 H   0  0  0  0  0  0  0  0  0  0  0  0
   11.8482    8.0607    0.0000 H   0  0  0  0  0  0  0  0  0  0  0  0
   11.1460    5.6373    0.0000 H   0  0  0  0  0  0  0  0  0  0  0  0
    7.5512    2.4320    0.0000 H   0  0  0  0  0  0  0  0  0  0  0  0
    8.1250    3.8940    0.0000 H   0  0  0  0  0  0  0  0  0  0  0  0
  1  2  1  0
  2  3  1  0
  3  4  1  0
  4  5  1  0
  5  6  1  0
  6  7  1  0
  7  8  1  0
  8  9  1  0
  9 10  1  0
  9 11  1  0
 11 12  1  0
 13 12  1  6
 13 14  1  0
 14 15  1  0
 15 16  1  0
 16 17  1  0
 17 18  1  0
 18 19  1  0
 19 20  1  0
 20 21  1  0
 21 22  1  0
 16 23  1  0
 23 24  1  0
 24 25  1  0
 25 26  1  0
 26 27  1  0
 26 28  1  0
 28 29  1  0
 11 30  1  0
 31 30  1  1
 31 32  1  0
 32 33  1  0
 33 34  1  0
 34 35  1  0
 35 36  2  0
 36 37  1  0
 37 38  1  0
 38 39  1  0
 39 40  1  0
 38 41  1  0
 41 42  1  0
 42 43  1  0
 42 44  1  0
 32 45  1  1
 31  3  1  0
 44 33  1  0
 31  4  1  0
 41 37  1  0
 29  6  1  0
 45  7  1  0
 32 11  1  0
 28 13  1  0
 29 13  1  0
 23 14  1  0
 27 24  1  0
 19 17  1  0
  1 46  1  0
  1 47  1  0
  1 48  1  0
  2 49  1  0
  2 50  1  0
  3 51  1  1
  4 52  1  6
  5 53  1  0
  5 54  1  0
  6 55  1  1
  7 56  1  1
  8 57  1  0
  8 58  1  0
  9 59  1  1
 12 60  1  0
 12 61  1  0
 14 62  1  1
 15 63  1  0
 15 64  1  0
 17 65  1  6
 18 66  1  0
 18 67  1  0
 19 68  1  6
 20 69  1  0
 20 70  1  0
 21 71  1  0
 21 72  1  0
 22 73  1  0
 22 74  1  0
 23 75  1  1
 24 76  1  1
 26 77  1  1
 28 78  1  1
 29 79  1  6
 30 80  1  0
 30 81  1  0
 33 82  1  6
 34 83  1  0
 34 84  1  0
 35 85  1  0
 36 86  1  0
 37 87  1  1
 38 88  1  6
 39 89  1  0
 39 90  1  0
 40 91  1  0
 40 92  1  0
 40 93  1  0
 41 94  1  6
 42 95  1  6
 45 96  1  0
 45 97  1  0
M  END
$$$$
