
     RDKit          2D

 55 57  0  0  0  0  0  0  0  0999 V2000
    0.0261    7.6726    0.0000 C   0  0  0  0  0  0  0  0  0  0  0  0
    0.5391    6.2630    0.0000 C   0  0  0  0  0  0  0  0  0  0  0  0
    1.0521    4.8535    0.0000 P   0  0  0  0  0  0  0  0  0  0  0  0
    2.5293    4.5930    0.0000 C   0  0  0  0  0  0  0  0  0  0  0  0
    4.0065    4.3325    0.0000 O   0  0  0  0  0  0  0  0  0  0  0  0
    0.0879    3.7044    0.0000 O   0  0  0  0  0  0  0  0  0  0  0  0
   -1.3893    3.9649    0.0000 C   0  0  0  0  0  0  0  0  0  0  0  0
   -1.6498    2.4877    0.0000 C   0  0  0  0  0  0  0  0  0  0  0  0
   -1.9102    1.0105    0.0000 C   0  0  0  0  0  0  0  0  0  0  0  0
   -2.1707   -0.4667    0.0000 C   0  0  0  0  0  0  0  0  0  0  0  0
   -1.0216   -1.4309    0.0000 N   0  0  0  0  0  0  0  0  0  0  0  0
   -3.3874    1.2709    0.0000 C   0  0  0  0  0  0  0  0  0  0  0  0
   -4.8646    1.0105    0.0000 C   0  0  0  0  0  0  0  0  0  0  0  0
   -3.9005   -0.1386    0.0000 C   0  0  0  0  0  0  0  0  0  0  0  0
   -4.8646   -1.2877    0.0000 C   0  0  0  0  0  0  0  0  0  0  0  0
   -5.3777   -2.6972    0.0000 C   0  0  0  0  0  0  0  0  0  0  0  0
   -3.9005   -2.4367    0.0000 C   0  0  0  0  0  0  0  0  0  0  0  0
   -3.3874   -3.8463    0.0000 C   0  0  0  0  0  0  0  0  0  0  0  0
   -1.1288    5.4421    0.0000 C   0  0  0  0  0  0  0  0  0  0  0  0
   -0.8683    6.9193    0.0000 C   0  0  0  0  0  0  0  0  0  0  0  0
   -1.1288    8.3965    0.0000 N   0  0  0  0  0  0  0  0  0  0  0  0
   -2.2779    7.4323    0.0000 C   0  0  0  0  0  0  0  0  0  0  0  0
   -3.4269    8.3965    0.0000 C   0  0  0  0  0  0  0  0  0  0  0  0
   -4.8365    7.8835    0.0000 C   0  0  0  0  0  0  0  0  0  0  0  0
   -3.1665    9.8737    0.0000 P   0  0  0  0  0  0  0  0  0  0  0  0
   -4.3155   10.8379    0.0000 P   0  0  0  0  0  0  0  0  0  0  0  0
   -0.3113    9.1341    0.0000 H   0  0  0  0  0  0  0  0  0  0  0  0
    2.2689    3.1158    0.0000 H   0  0  0  0  0  0  0  0  0  0  0  0
    2.7898    6.0702    0.0000 H   0  0  0  0  0  0  0  0  0  0  0  0
    4.9707    5.4816    0.0000 H   0  0  0  0  0  0  0  0  0  0  0  0
   -2.8665    4.2254    0.0000 H   0  0  0  0  0  0  0  0  0  0  0  0
   -0.1725    2.2272    0.0000 H   0  0  0  0  0  0  0  0  0  0  0  0
   -2.6955    2.8074    0.0000 H   0  0  0  0  0  0  0  0  0  0  0  0
   -0.4330    0.7500    0.0000 H   0  0  0  0  0  0  0  0  0  0  0  0
   -3.0030   -0.7697    0.0000 H   0  0  0  0  0  0  0  0  0  0  0  0
   -1.1001   -2.9289    0.0000 H   0  0  0  0  0  0  0  0  0  0  0  0
   -3.5207    2.3563    0.0000 H   0  0  0  0  0  0  0  0  0  0  0  0
   -5.3777    2.4200    0.0000 H   0  0  0  0  0  0  0  0  0  0  0  0
   -6.2454    0.4244    0.0000 H   0  0  0  0  0  0  0  0  0  0  0  0
   -3.2638   -0.6184    0.0000 H   0  0  0  0  0  0  0  0  0  0  0  0
   -6.2454   -0.7016    0.0000 H   0  0  0  0  0  0  0  0  0  0  0  0
   -6.8549   -2.4367    0.0000 H   0  0  0  0  0  0  0  0  0  0  0  0
   -5.5605   -4.1860    0.0000 H   0  0  0  0  0  0  0  0  0  0  0  0
   -2.5197   -1.8507    0.0000 H   0  0  0  0  0  0  0  0  0  0  0  0
   -2.8744   -5.2558    0.0000 H   0  0  0  0  0  0  0  0  0  0  0  0
   -1.9259   -3.5089    0.0000 H   0  0  0  0  0  0  0  0  0  0  0  0
   -4.7239   -4.5273    0.0000 H   0  0  0  0  0  0  0  0  0  0  0  0
   -2.6268    5.5206    0.0000 H   0  0  0  0  0  0  0  0  0  0  0  0
    0.3675    5.5468    0.0000 H   0  0  0  0  0  0  0  0  0  0  0  0
    0.5871    7.2823    0.0000 H   0  0  0  0  0  0  0  0  0  0  0  0
   -0.7914    9.8581    0.0000 H   0  0  0  0  0  0  0  0  0  0  0  0
   -3.1806    6.2344    0.0000 H   0  0  0  0  0  0  0  0  0  0  0  0
   -5.9855    8.8477    0.0000 H   0  0  0  0  0  0  0  0  0  0  0  0
   -5.0970    6.4063    0.0000 H   0  0  0  0  0  0  0  0  0  0  0  0
   -4.0551   12.3151    0.0000 H   0  0  0  0  0  0  0  0  0  0  0  0
  1  2  3  0
  2  3  1  0
  3  4  1  0
  4  5  1  0
  3  6  1  0
  6  7  1  0
  7  8  1  0
  8  9  1  0
  9 10  1  0
 10 11  2  3
  9 12  1  0
 12 13  1  0
 13 14  1  0
 14 15  1  0
 15 16  1  0
 16 17  1  0
 17 18  1  0
  7 19  1  0
 19 20  1  0
 20 21  1  0
 21 22  1  0
 22 23  1  0
 23 24  2  3
 23 25  1  0
 25 26  2  3
 14 12  1  0
 17 15  1  0
 22 20  1  0
  1 27  1  0
  4 28  1  0
  4 29  1  0
  5 30  1  0
  7 31  1  0
  8 32  1  0
  8 33  1  0
  9 34  1  0
 10 35  1  0
 11 36  1  0
 12 37  1  0
 13 38  1  0
 13 39  1  0
 14 40  1  0
 15 41  1  0
 16 42  1  0
 16 43  1  0
 17 44  1  0
 18 45  1  0
 18 46  1  0
 18 47  1  0
 19 48  1  0
 19 49  1  0
 20 50  1  0
 21 51  1  0
 22 52  1  0
 24 53  1  0
 24 54  1  0
 26 55  1  0
M  END
$$$$
