
     RDKit          2D

 31 32  0  0  0  0  0  0  0  0999 V2000
    1.0670    5.2500    0.0000 C   0  0  0  0  0  0  0  0  0  0  0  0
   -0.4330    5.2500    0.0000 C   0  0  0  0  0  0  0  0  0  0  0  0
   -0.4330    3.7500    0.0000 C   0  0  0  0  0  0  0  0  0  0  0  0
   -0.4330    2.2500    0.0000 C   0  0  0  0  0  0  0  0  0  0  0  0
   -0.4330    0.7500    0.0000 C   0  0  0  0  0  0  0  0  0  0  0  0
    0.8660    0.0000    0.0000 C   0  0  0  0  0  0  0  0  0  0  0  0
   -0.4330   -0.7500    0.0000 C   0  0  0  0  0  0  0  0  0  0  0  0
   -0.4330   -2.2500    0.0000 O   0  0  0  0  0  0  0  0  0  0  0  0
   -1.7321    0.0000    0.0000 C   0  0  0  0  0  0  0  0  0  0  0  0
   -0.4330    6.7500    0.0000 O   0  0  0  0  0  0  0  0  0  0  0  0
   -1.7321    7.5000    0.0000 C   0  0  0  0  0  0  0  0  0  0  0  0
   -3.0311    8.2500    0.0000 C   0  0  0  0  0  0  0  0  0  0  0  0
   -4.3301    9.0000    0.0000 O   0  0  0  0  0  0  0  0  0  0  0  0
    1.0670    6.7500    0.0000 H   0  0  0  0  0  0  0  0  0  0  0  0
    1.1750    4.3709    0.0000 H   0  0  0  0  0  0  0  0  0  0  0  0
    2.5670    5.2500    0.0000 H   0  0  0  0  0  0  0  0  0  0  0  0
   -1.9330    5.2500    0.0000 H   0  0  0  0  0  0  0  0  0  0  0  0
    0.4461    3.6420    0.0000 H   0  0  0  0  0  0  0  0  0  0  0  0
   -1.9330    3.7500    0.0000 H   0  0  0  0  0  0  0  0  0  0  0  0
    1.0670    2.2500    0.0000 H   0  0  0  0  0  0  0  0  0  0  0  0
   -1.9330    2.2500    0.0000 H   0  0  0  0  0  0  0  0  0  0  0  0
    1.8302    1.1491    0.0000 H   0  0  0  0  0  0  0  0  0  0  0  0
    1.8302   -1.1491    0.0000 H   0  0  0  0  0  0  0  0  0  0  0  0
   -1.7321   -3.0000    0.0000 H   0  0  0  0  0  0  0  0  0  0  0  0
   -2.6962   -1.1491    0.0000 H   0  0  0  0  0  0  0  0  0  0  0  0
   -2.6962    1.1491    0.0000 H   0  0  0  0  0  0  0  0  0  0  0  0
   -0.9821    8.7990    0.0000 H   0  0  0  0  0  0  0  0  0  0  0  0
   -2.4821    6.2010    0.0000 H   0  0  0  0  0  0  0  0  0  0  0  0
   -2.2811    9.5490    0.0000 H   0  0  0  0  0  0  0  0  0  0  0  0
   -3.7811    6.9510    0.0000 H   0  0  0  0  0  0  0  0  0  0  0  0
   -4.3301   10.5000    0.0000 H   0  0  0  0  0  0  0  0  0  0  0  0
  1  2  1  0
  2  3  1  0
  3  4  1  0
  5  4  1  6
  5  6  1  0
  6  7  1  0
  7  8  1  6
  7  9  1  0
  2 10  1  0
 10 11  1  0
 11 12  1  0
 12 13  1  0
  7  5  1  0
  9  5  1  0
  1 14  1  0
  1 15  1  0
  1 16  1  0
  2 17  1  6
  3 18  1  0
  3 19  1  0
  4 20  1  0
  4 21  1  0
  6 22  1  0
  6 23  1  0
  8 24  1  0
  9 25  1  0
  9 26  1  0
 11 27  1  0
 11 28  1  0
 12 29  1  0
 12 30  1  0
 13 31  1  0
M  END
$$$$
