
     RDKit          2D

 99107  0  0  0  0  0  0  0  0999 V2000
    3.9479   11.5733    0.0000 C   0  0  0  0  0  0  0  0  0  0  0  0
    3.0021   12.7375    0.0000 C   0  0  0  0  0  0  0  0  0  0  0  0
    2.0562   13.9017    0.0000 C   0  0  0  0  0  0  0  0  0  0  0  0
    0.8920   12.9559    0.0000 C   0  0  0  0  0  0  0  0  0  0  0  0
    1.8378   11.7917    0.0000 C   0  0  0  0  0  0  0  0  0  0  0  0
    0.6736   10.8458    0.0000 C   0  0  0  0  0  0  0  0  0  0  0  0
   -0.4906    9.9000    0.0000 S   0  0  0  0  0  0  0  0  0  0  0  0
   -0.2536    8.4189    0.0000 C   0  0  0  0  0  0  0  0  0  0  0  0
   -0.0166    6.9377    0.0000 C   0  0  0  0  0  0  0  0  0  0  0  0
    0.2204    5.4565    0.0000 C   0  0  0  0  0  0  0  0  0  0  0  0
    0.4574    3.9754    0.0000 C   0  0  0  0  0  0  0  0  0  0  0  0
    1.9572    3.9516    0.0000 C   0  0  0  0  0  0  0  0  0  0  0  0
    3.3747    4.4422    0.0000 C   0  0  0  0  0  0  0  0  0  0  0  0
    2.2411    5.4245    0.0000 Mg  0  0  0  0  0  2  0  0  0  0  0  0
   -0.9601    3.4848    0.0000 C   0  0  0  0  0  0  0  0  0  0  0  0
    0.1735    2.5025    0.0000 C   0  0  0  0  0  0  0  0  0  0  0  0
   -1.2440    2.0119    0.0000 C   0  0  0  0  0  0  0  0  0  0  0  0
   -0.4330    0.7500    0.0000 C   0  0  0  0  0  0  0  0  0  0  0  0
    0.8660    0.0000    0.0000 C   0  0  0  0  0  0  0  0  0  0  0  0
    1.8302    1.1491    0.0000 C   0  0  0  0  0  0  0  0  0  0  0  0
   -0.4330   -0.7500    0.0000 C   0  0  0  0  0  0  0  0  0  0  0  0
   -1.2440   -2.0119    0.0000 C   0  0  0  0  0  0  0  0  0  0  0  0
   -2.6084   -2.6350    0.0000 C   0  0  0  0  0  0  0  0  0  0  0  0
   -1.6812   -3.8141    0.0000 Cl  0  0  0  0  0  0  0  0  0  0  0  0
   -3.5357   -3.8141    0.0000 C   0  0  0  0  0  0  0  0  0  0  0  0
   -2.5355   -4.9320    0.0000 C   0  0  0  0  0  0  0  0  0  0  0  0
   -1.5354   -6.0499    0.0000 N   0  0  0  0  0  0  0  0  0  0  0  0
   -4.0932   -2.4215    0.0000 C   0  0  0  0  0  0  0  0  0  0  0  0
   -5.2268   -1.4392    0.0000 C   0  0  0  0  0  0  0  0  0  0  0  0
   -5.6494    0.0000    0.0000 C   0  0  0  0  0  0  0  0  0  0  0  0
   -5.2268    1.4392    0.0000 N   0  0  0  0  0  0  0  0  0  0  0  0
   -4.0932    2.4215    0.0000 C   0  0  0  0  0  0  0  0  0  0  0  0
   -5.4576    3.0447    0.0000 N   0  0  0  0  0  0  0  0  0  0  0  0
   -6.2686    4.3065    0.0000 C   0  0  0  0  0  0  0  0  0  0  0  0
   -6.2686    5.8065    0.0000 C   0  0  0  0  0  0  0  0  0  0  0  0
   -5.4576    7.0684    0.0000 C   0  0  0  0  0  0  0  0  0  0  0  0
   -5.3150    8.5616    0.0000 C   0  0  0  0  0  0  0  0  0  0  0  0
   -4.0932    7.6915    0.0000 C   0  0  0  0  0  0  0  0  0  0  0  0
   -2.8992    6.8413    0.0000 C   0  0  0  0  0  0  0  0  0  0  0  0
   -2.0637    6.1173    0.0000 C   0  0  0  0  0  0  0  0  0  0  0  0
   -1.7522    5.0565    0.0000 C   0  0  0  0  0  0  0  0  0  0  0  0
   -2.0637    3.9957    0.0000 N   0  0  0  0  0  0  0  0  0  0  0  0
   -0.2129    2.8063    0.0000 O   0  0  0  0  0  0  0  0  0  0  0  0
   -2.6084    2.6350    0.0000 C   0  0  0  0  0  0  0  0  0  0  0  0
    4.8937   10.4091    0.0000 H   0  0  0  0  0  0  0  0  0  0  0  0
    5.1121   12.5191    0.0000 H   0  0  0  0  0  0  0  0  0  0  0  0
    2.9076   10.4926    0.0000 H   0  0  0  0  0  0  0  0  0  0  0  0
    4.1663   13.6833    0.0000 H   0  0  0  0  0  0  0  0  0  0  0  0
    3.2204   14.8475    0.0000 H   0  0  0  0  0  0  0  0  0  0  0  0
    1.1104   15.0659    0.0000 H   0  0  0  0  0  0  0  0  0  0  0  0
   -0.0538   14.1201    0.0000 H   0  0  0  0  0  0  0  0  0  0  0  0
   -0.3788   12.1590    0.0000 H   0  0  0  0  0  0  0  0  0  0  0  0
    2.6347   10.5208    0.0000 H   0  0  0  0  0  0  0  0  0  0  0  0
    1.6194    9.6816    0.0000 H   0  0  0  0  0  0  0  0  0  0  0  0
   -0.4071   11.8861    0.0000 H   0  0  0  0  0  0  0  0  0  0  0  0
    1.2276    8.6559    0.0000 H   0  0  0  0  0  0  0  0  0  0  0  0
   -1.7481    8.5473    0.0000 H   0  0  0  0  0  0  0  0  0  0  0  0
   -1.5111    7.0661    0.0000 H   0  0  0  0  0  0  0  0  0  0  0  0
    1.4646    7.1747    0.0000 H   0  0  0  0  0  0  0  0  0  0  0  0
   -1.2741    5.5850    0.0000 H   0  0  0  0  0  0  0  0  0  0  0  0
    1.6002    6.0449    0.0000 H   0  0  0  0  0  0  0  0  0  0  0  0
    2.3730    2.5104    0.0000 H   0  0  0  0  0  0  0  0  0  0  0  0
    4.1040    3.1314    0.0000 H   0  0  0  0  0  0  0  0  0  0  0  0
    4.5389    5.3880    0.0000 H   0  0  0  0  0  0  0  0  0  0  0  0
   -2.0937    4.4671    0.0000 H   0  0  0  0  0  0  0  0  0  0  0  0
    1.6357    2.1675    0.0000 H   0  0  0  0  0  0  0  0  0  0  0  0
    0.8340    1.5529    0.0000 H   0  0  0  0  0  0  0  0  0  0  0  0
    1.8302   -1.1491    0.0000 H   0  0  0  0  0  0  0  0  0  0  0  0
    2.9273    2.1720    0.0000 H   0  0  0  0  0  0  0  0  0  0  0  0
    2.9793    0.1849    0.0000 H   0  0  0  0  0  0  0  0  0  0  0  0
    1.2684    2.5399    0.0000 H   0  0  0  0  0  0  0  0  0  0  0  0
    0.7267   -1.7013    0.0000 H   0  0  0  0  0  0  0  0  0  0  0  0
    0.1598   -2.5406    0.0000 H   0  0  0  0  0  0  0  0  0  0  0  0
   -0.7443   -3.4262    0.0000 H   0  0  0  0  0  0  0  0  0  0  0  0
   -4.8102   -4.6049    0.0000 H   0  0  0  0  0  0  0  0  0  0  0  0
   -3.6534   -5.9321    0.0000 H   0  0  0  0  0  0  0  0  0  0  0  0
   -1.2088   -4.2320    0.0000 H   0  0  0  0  0  0  0  0  0  0  0  0
   -2.0034   -7.4750    0.0000 H   0  0  0  0  0  0  0  0  0  0  0  0
   -0.0671   -5.7427    0.0000 H   0  0  0  0  0  0  0  0  0  0  0  0
   -5.1998   -3.4341    0.0000 H   0  0  0  0  0  0  0  0  0  0  0  0
   -5.9499   -2.7535    0.0000 H   0  0  0  0  0  0  0  0  0  0  0  0
   -6.7226   -1.5510    0.0000 H   0  0  0  0  0  0  0  0  0  0  0  0
   -6.9682   -0.7147    0.0000 H   0  0  0  0  0  0  0  0  0  0  0  0
   -6.8712    0.8701    0.0000 H   0  0  0  0  0  0  0  0  0  0  0  0
   -6.5781    2.0903    0.0000 H   0  0  0  0  0  0  0  0  0  0  0  0
   -5.3038    1.5359    0.0000 H   0  0  0  0  0  0  0  0  0  0  0  0
   -6.5708    2.0392    0.0000 H   0  0  0  0  0  0  0  0  0  0  0  0
   -6.8751    7.5590    0.0000 H   0  0  0  0  0  0  0  0  0  0  0  0
   -6.7608    8.9613    0.0000 H   0  0  0  0  0  0  0  0  0  0  0  0
   -4.6703    9.9160    0.0000 H   0  0  0  0  0  0  0  0  0  0  0  0
   -3.7096    9.1417    0.0000 H   0  0  0  0  0  0  0  0  0  0  0  0
   -2.7106    8.9746    0.0000 H   0  0  0  0  0  0  0  0  0  0  0  0
   -1.5295    8.5201    0.0000 H   0  0  0  0  0  0  0  0  0  0  0  0
   -0.9173    7.8883    0.0000 H   0  0  0  0  0  0  0  0  0  0  0  0
   -0.0505    6.9662    0.0000 H   0  0  0  0  0  0  0  0  0  0  0  0
    0.0545    6.0691    0.0000 H   0  0  0  0  0  0  0  0  0  0  0  0
    0.3439    4.5080    0.0000 H   0  0  0  0  0  0  0  0  0  0  0  0
    0.0804    1.3353    0.0000 H   0  0  0  0  0  0  0  0  0  0  0  0
   -1.3978    3.5207    0.0000 H   0  0  0  0  0  0  0  0  0  0  0  0
  1  2  1  0
  2  3  1  0
  3  4  1  0
  4  5  1  0
  5  6  1  0
  6  7  1  0
  7  8  1  0
  8  9  1  0
  9 10  1  0
 10 11  1  0
 11 12  1  0
 12 13  1  0
 13 14  1  0
 11 15  1  0
 15 16  1  0
 16 17  1  0
 17 18  1  0
 18 19  1  0
 19 20  1  0
 19 21  1  0
 21 22  1  0
 22 23  1  0
 23 24  1  0
 23 25  1  0
 25 26  1  0
 26 27  1  0
 25 28  1  0
 28 29  1  0
 29 30  1  0
 30 31  1  0
 31 32  1  0
 32 33  1  0
 33 34  1  0
 34 35  3  0
 35 36  1  0
 36 37  1  0
 37 38  1  0
 38 39  1  0
 39 40  1  0
 40 41  1  0
 41 42  1  0
 42 43  1  0
 42 44  1  0
  5  2  1  0
 16 11  1  0
 44 17  1  0
 14 12  1  0
 17 15  1  0
 21 18  1  0
 28 23  1  0
 44 32  1  0
 38 36  1  0
  1 45  1  0
  1 46  1  0
  1 47  1  0
  2 48  1  0
  3 49  1  0
  3 50  1  0
  4 51  1  0
  4 52  1  0
  5 53  1  0
  6 54  1  0
  6 55  1  0
  8 56  1  0
  8 57  1  0
  9 58  1  0
  9 59  1  0
 10 60  1  0
 10 61  1  0
 12 62  1  0
 13 63  1  0
 13 64  1  0
 15 65  1  0
 16 66  1  0
 18 67  1  0
 19 68  1  0
 20 69  1  0
 20 70  1  0
 20 71  1  0
 21 72  1  0
 22 73  1  0
 22 74  1  0
 25 75  1  0
 26 76  1  0
 26 77  1  0
 27 78  1  0
 27 79  1  0
 28 80  1  0
 29 81  1  0
 29 82  1  0
 30 83  1  0
 30 84  1  0
 31 85  1  0
 32 86  1  0
 33 87  1  0
 36 88  1  0
 37 89  1  0
 37 90  1  0
 38 91  1  0
 39 92  1  0
 39 93  1  0
 40 94  1  0
 40 95  1  0
 41 96  1  0
 41 97  1  0
 43 98  1  0
 44 99  1  0
M  END
$$$$
