
     RDKit          2D

 34 34  0  0  0  0  0  0  0  0999 V2000
    6.3640   -3.1820    0.0000 C   0  0  0  0  0  0  0  0  0  0  0  0
    5.3033   -2.1213    0.0000 C   0  0  0  0  0  0  0  0  0  0  0  0
    4.2426   -1.0607    0.0000 C   0  0  0  0  0  0  0  0  0  0  0  0
    3.1820    0.0000    0.0000 C   0  0  0  0  0  0  0  0  0  0  0  0
    2.1213    1.0607    0.0000 C   0  0  0  0  0  0  0  0  0  0  0  0
    1.0607    2.1213    0.0000 C   0  0  0  0  0  0  0  0  0  0  0  0
    1.4489    3.5702    0.0000 O   0  0  0  0  0  0  0  0  0  0  0  0
   -0.3882    1.7331    0.0000 O   0  0  0  0  0  0  0  0  0  0  0  0
   -1.4489    2.7938    0.0000 O   0  0  0  0  0  0  0  0  0  0  0  0
    1.0607   -0.0000    0.0000 C   0  0  0  0  0  0  0  0  0  0  0  0
    0.0000   -1.0607    0.0000 C   0  0  0  0  0  0  0  0  0  0  0  0
    1.0607   -2.1213    0.0000 C   0  0  0  0  0  0  0  0  0  0  0  0
    0.0000   -3.1820    0.0000 C   0  0  0  0  0  0  0  0  0  0  0  0
    2.1213   -1.0607    0.0000 C   0  0  0  0  0  0  0  0  0  0  0  0
    7.4246   -4.2426    0.0000 H   0  0  0  0  0  0  0  0  0  0  0  0
    7.4246   -2.1213    0.0000 H   0  0  0  0  0  0  0  0  0  0  0  0
    5.3033   -4.2426    0.0000 H   0  0  0  0  0  0  0  0  0  0  0  0
    6.3640   -1.0607    0.0000 H   0  0  0  0  0  0  0  0  0  0  0  0
    4.2426   -3.1820    0.0000 H   0  0  0  0  0  0  0  0  0  0  0  0
    3.3192   -2.2427    0.0000 H   0  0  0  0  0  0  0  0  0  0  0  0
    5.3033   -0.0000    0.0000 H   0  0  0  0  0  0  0  0  0  0  0  0
    2.7714   -0.6833    0.0000 H   0  0  0  0  0  0  0  0  0  0  0  0
    4.2426    1.0607    0.0000 H   0  0  0  0  0  0  0  0  0  0  0  0
    3.1820    2.1213    0.0000 H   0  0  0  0  0  0  0  0  0  0  0  0
   -2.8978    2.4055    0.0000 H   0  0  0  0  0  0  0  0  0  0  0  0
   -0.2251    0.7725    0.0000 H   0  0  0  0  0  0  0  0  0  0  0  0
   -1.0607   -0.0000    0.0000 H   0  0  0  0  0  0  0  0  0  0  0  0
   -1.1820   -1.9841    0.0000 H   0  0  0  0  0  0  0  0  0  0  0  0
    2.1213   -3.1820    0.0000 H   0  0  0  0  0  0  0  0  0  0  0  0
   -1.0607   -4.2426    0.0000 H   0  0  0  0  0  0  0  0  0  0  0  0
    1.0607   -4.2426    0.0000 H   0  0  0  0  0  0  0  0  0  0  0  0
   -1.1820   -2.2585    0.0000 H   0  0  0  0  0  0  0  0  0  0  0  0
    3.0448   -2.2427    0.0000 H   0  0  0  0  0  0  0  0  0  0  0  0
    3.4071   -0.2882    0.0000 H   0  0  0  0  0  0  0  0  0  0  0  0
  1  2  1  0
  2  3  1  0
  3  4  1  0
  4  5  1  0
  5  6  1  0
  6  7  2  0
  6  8  1  0
  8  9  1  0
  5 10  1  0
 10 11  1  0
 11 12  1  0
 12 13  1  0
 12 14  1  0
 14 10  1  0
  1 15  1  0
  1 16  1  0
  1 17  1  0
  2 18  1  0
  2 19  1  0
  3 20  1  0
  3 21  1  0
  4 22  1  0
  4 23  1  0
  5 24  1  0
  9 25  1  0
 10 26  1  0
 11 27  1  0
 11 28  1  0
 12 29  1  0
 13 30  1  0
 13 31  1  0
 13 32  1  0
 14 33  1  0
 14 34  1  0
M  END
$$$$
