
     RDKit          2D

 70 76  0  0  0  0  0  0  0  0999 V2000
    1.9078    1.8773    0.0000 C   0  0  0  0  0  0  0  0  0  0  0  0
    0.4120    1.9894    0.0000 C   0  0  0  0  0  0  0  0  0  0  0  0
   -0.4330    0.7500    0.0000 C   0  0  0  0  0  0  0  0  0  0  0  0
    0.8660    0.0000    0.0000 C   0  0  0  0  0  0  0  0  0  0  0  0
   -0.4330   -0.7500    0.0000 C   0  0  0  0  0  0  0  0  0  0  0  0
   -1.6058   -1.6852    0.0000 C   0  0  0  0  0  0  0  0  0  0  0  0
   -3.0682   -1.3515    0.0000 C   0  0  0  0  0  0  0  0  0  0  0  0
   -3.7190    0.0000    0.0000 C   0  0  0  0  0  0  0  0  0  0  0  0
   -4.8917   -0.9352    0.0000 C   0  0  0  0  0  0  0  0  0  0  0  0
   -4.1743   -2.2526    0.0000 C   0  0  0  0  0  0  0  0  0  0  0  0
   -6.0164    0.0573    0.0000 C   0  0  0  0  0  0  0  0  0  0  0  0
   -6.9806    1.2064    0.0000 O   0  0  0  0  0  0  0  0  0  0  0  0
   -8.4801    1.1690    0.0000 C   0  0  0  0  0  0  0  0  0  0  0  0
   -9.3858   -0.0267    0.0000 C   0  0  0  0  0  0  0  0  0  0  0  0
  -10.4596   -1.0741    0.0000 C   0  0  0  0  0  0  0  0  0  0  0  0
  -11.1104   -2.4255    0.0000 B   0  0  0  0  0  0  0  0  0  0  0  0
  -12.6062   -2.5376    0.0000 C   0  0  0  0  0  0  0  0  0  0  0  0
  -14.1021   -2.6497    0.0000 C   0  0  0  0  0  0  0  0  0  0  0  0
  -13.9900   -4.1455    0.0000 C   0  0  0  0  0  0  0  0  0  0  0  0
  -15.4858   -4.2576    0.0000 C   0  0  0  0  0  0  0  0  0  0  0  0
  -15.5979   -2.7618    0.0000 C   0  0  0  0  0  0  0  0  0  0  0  0
  -15.7100   -1.2660    0.0000 N   0  0  0  0  0  0  0  0  0  0  0  0
   -9.0157   -1.4804    0.0000 C   0  0  0  0  0  0  0  0  0  0  0  0
   -7.6484   -2.0973    0.0000 C   0  0  0  0  0  0  0  0  0  0  0  0
   -8.5541   -3.2930    0.0000 O   0  0  0  0  0  0  0  0  0  0  0  0
   -6.3136   -1.4130    0.0000 C   0  0  0  0  0  0  0  0  0  0  0  0
   -3.0682    1.3515    0.0000 C   0  0  0  0  0  0  0  0  0  0  0  0
   -2.6260    2.7848    0.0000 C   0  0  0  0  0  0  0  0  0  0  0  0
   -3.9608    3.4691    0.0000 C   0  0  0  0  0  0  0  0  0  0  0  0
   -1.6058    1.6852    0.0000 C   0  0  0  0  0  0  0  0  0  0  0  0
    2.7528    3.1166    0.0000 H   0  0  0  0  0  0  0  0  0  0  0  0
    2.2536    1.1590    0.0000 H   0  0  0  0  0  0  0  0  0  0  0  0
   -0.0693    3.4101    0.0000 H   0  0  0  0  0  0  0  0  0  0  0  0
    1.5110    0.4685    0.0000 H   0  0  0  0  0  0  0  0  0  0  0  0
    1.8302   -1.1491    0.0000 H   0  0  0  0  0  0  0  0  0  0  0  0
    0.4120   -1.9894    0.0000 H   0  0  0  0  0  0  0  0  0  0  0  0
   -0.4330   -2.6205    0.0000 H   0  0  0  0  0  0  0  0  0  0  0  0
   -2.0870   -3.1059    0.0000 H   0  0  0  0  0  0  0  0  0  0  0  0
   -3.0682   -2.8515    0.0000 H   0  0  0  0  0  0  0  0  0  0  0  0
   -4.4063   -2.0292    0.0000 H   0  0  0  0  0  0  0  0  0  0  0  0
   -4.8917    0.9352    0.0000 H   0  0  0  0  0  0  0  0  0  0  0  0
   -3.6229   -3.6475    0.0000 H   0  0  0  0  0  0  0  0  0  0  0  0
   -5.3944   -3.1252    0.0000 H   0  0  0  0  0  0  0  0  0  0  0  0
   -2.7226   -1.8753    0.0000 H   0  0  0  0  0  0  0  0  0  0  0  0
   -7.2343   -0.8183    0.0000 H   0  0  0  0  0  0  0  0  0  0  0  0
   -8.1829    2.6392    0.0000 H   0  0  0  0  0  0  0  0  0  0  0  0
   -9.8474    1.7859    0.0000 H   0  0  0  0  0  0  0  0  0  0  0  0
  -10.5105    0.9658    0.0000 H   0  0  0  0  0  0  0  0  0  0  0  0
  -11.6775   -0.1985    0.0000 H   0  0  0  0  0  0  0  0  0  0  0  0
  -10.2655   -3.6649    0.0000 H   0  0  0  0  0  0  0  0  0  0  0  0
  -12.3127   -4.0086    0.0000 H   0  0  0  0  0  0  0  0  0  0  0  0
  -12.7183   -1.0418    0.0000 H   0  0  0  0  0  0  0  0  0  0  0  0
  -14.0310   -1.1514    0.0000 H   0  0  0  0  0  0  0  0  0  0  0  0
  -13.8779   -5.6413    0.0000 H   0  0  0  0  0  0  0  0  0  0  0  0
  -12.4916   -4.2166    0.0000 H   0  0  0  0  0  0  0  0  0  0  0  0
  -16.9816   -4.3697    0.0000 H   0  0  0  0  0  0  0  0  0  0  0  0
  -15.3737   -5.7534    0.0000 H   0  0  0  0  0  0  0  0  0  0  0  0
  -17.0937   -2.8739    0.0000 H   0  0  0  0  0  0  0  0  0  0  0  0
  -17.0614   -0.6152    0.0000 H   0  0  0  0  0  0  0  0  0  0  0  0
  -14.5828   -0.2763    0.0000 H   0  0  0  0  0  0  0  0  0  0  0  0
   -9.5287   -2.8899    0.0000 H   0  0  0  0  0  0  0  0  0  0  0  0
   -6.6842   -3.2463    0.0000 H   0  0  0  0  0  0  0  0  0  0  0  0
   -7.9715   -4.6752    0.0000 H   0  0  0  0  0  0  0  0  0  0  0  0
   -5.9038   -2.8559    0.0000 H   0  0  0  0  0  0  0  0  0  0  0  0
   -4.5209    1.7252    0.0000 H   0  0  0  0  0  0  0  0  0  0  0  0
   -1.7203    3.9805    0.0000 H   0  0  0  0  0  0  0  0  0  0  0  0
   -5.2956    4.1534    0.0000 H   0  0  0  0  0  0  0  0  0  0  0  0
   -3.2765    4.8039    0.0000 H   0  0  0  0  0  0  0  0  0  0  0  0
   -4.8027    2.2277    0.0000 H   0  0  0  0  0  0  0  0  0  0  0  0
   -0.7271    2.9010    0.0000 H   0  0  0  0  0  0  0  0  0  0  0  0
  1  2  2  3
  2  3  1  0
  3  4  1  0
  4  5  1  0
  5  6  1  0
  6  7  1  0
  7  8  1  0
  8  9  1  0
  9 10  1  0
  9 11  1  0
 11 12  1  0
 12 13  1  0
 13 14  1  0
 14 15  1  0
 15 16  1  0
 16 17  1  0
 17 18  1  0
 18 19  1  0
 19 20  1  0
 20 21  1  0
 21 22  1  0
 15 23  1  0
 23 24  1  0
 24 25  1  0
 24 26  1  0
  8 27  1  0
 27 28  1  0
 28 29  1  0
 28 30  1  0
  5  3  1  0
 26  9  1  0
 30 27  1  0
 30  3  1  0
 26 11  1  0
 23 14  1  0
 21 18  1  0
  1 31  1  0
  1 32  1  0
  2 33  1  0
  4 34  1  0
  4 35  1  0
  5 36  1  0
  6 37  1  0
  6 38  1  0
  7 39  1  0
  7 40  1  0
  8 41  1  0
 10 42  1  0
 10 43  1  0
 10 44  1  0
 11 45  1  0
 13 46  1  0
 13 47  1  0
 14 48  1  0
 15 49  1  0
 16 50  1  0
 17 51  1  0
 17 52  1  0
 18 53  1  0
 19 54  1  0
 19 55  1  0
 20 56  1  0
 20 57  1  0
 21 58  1  0
 22 59  1  0
 22 60  1  0
 23 61  1  0
 24 62  1  0
 25 63  1  0
 26 64  1  0
 27 65  1  0
 28 66  1  0
 29 67  1  0
 29 68  1  0
 29 69  1  0
 30 70  1  0
M  END
$$$$
