
     RDKit          2D

102111  0  0  0  0  0  0  0  0999 V2000
  -11.7726   -8.6535    0.0000 C   0  0  0  0  0  0  0  0  0  0  0  0
  -10.3460   -9.1170    0.0000 C   0  0  0  0  0  0  0  0  0  0  0  0
   -8.9194   -9.5805    0.0000 C   0  0  0  0  0  0  0  0  0  0  0  0
   -7.4928  -10.0441    0.0000 C   0  0  0  0  0  0  0  0  0  0  0  0
   -6.0662  -10.5076    0.0000 C   0  0  0  0  0  0  0  0  0  0  0  0
   -4.6397  -10.9711    0.0000 C   0  0  0  0  0  0  0  0  0  0  0  0
   -4.1761   -9.5445    0.0000 C   0  0  0  0  0  0  0  0  0  0  0  0
   -5.6027   -9.0810    0.0000 C   0  0  0  0  0  0  0  0  0  0  0  0
   -5.1392   -7.6544    0.0000 C   0  0  0  0  0  0  0  0  0  0  0  0
   -6.1429   -6.5397    0.0000 N   0  0  0  0  0  0  0  0  0  0  0  0
   -5.6794   -5.1131    0.0000 C   0  0  0  0  0  0  0  0  0  0  0  0
   -4.2528   -5.5767    0.0000 C   0  0  0  0  0  0  0  0  0  0  0  0
   -2.8262   -6.0402    0.0000 N   0  0  0  0  0  0  0  0  0  0  0  0
   -1.7115   -5.0365    0.0000 C   0  0  0  0  0  0  0  0  0  0  0  0
   -7.1060   -4.6496    0.0000 C   0  0  0  0  0  0  0  0  0  0  0  0
   -8.6050   -4.7020    0.0000 C   0  0  0  0  0  0  0  0  0  0  0  0
   -7.8102   -5.9740    0.0000 C   0  0  0  0  0  0  0  0  0  0  0  0
   -8.8332   -7.0711    0.0000 C   0  0  0  0  0  0  0  0  0  0  0  0
   -9.1706   -8.5326    0.0000 C   0  0  0  0  0  0  0  0  0  0  0  0
  -10.6685   -8.4541    0.0000 C   0  0  0  0  0  0  0  0  0  0  0  0
   -7.7361   -8.0941    0.0000 C   0  0  0  0  0  0  0  0  0  0  0  0
   -6.7131   -6.9970    0.0000 C   0  0  0  0  0  0  0  0  0  0  0  0
   -5.3887   -7.7012    0.0000 O   0  0  0  0  0  0  0  0  0  0  0  0
   -5.4411   -6.2021    0.0000 C   0  0  0  0  0  0  0  0  0  0  0  0
   -3.9738   -5.8903    0.0000 C   0  0  0  0  0  0  0  0  0  0  0  0
   -2.5066   -5.5784    0.0000 C   0  0  0  0  0  0  0  0  0  0  0  0
   -3.6620   -7.3575    0.0000 C   0  0  0  0  0  0  0  0  0  0  0  0
   -4.2857   -4.4231    0.0000 C   0  0  0  0  0  0  0  0  0  0  0  0
   -2.7939   -4.2663    0.0000 C   0  0  0  0  0  0  0  0  0  0  0  0
   -3.4469   -2.6645    0.0000 C   0  0  0  0  0  0  0  0  0  0  0  0
   -4.8958   -3.0527    0.0000 C   0  0  0  0  0  0  0  0  0  0  0  0
   -3.7811   -2.0490    0.0000 C   0  0  0  0  0  0  0  0  0  0  0  0
   -2.4821   -2.7990    0.0000 C   0  0  0  0  0  0  0  0  0  0  0  0
   -1.7321   -1.5000    0.0000 C   0  0  0  0  0  0  0  0  0  0  0  0
   -0.4330   -0.7500    0.0000 C   0  0  0  0  0  0  0  0  0  0  0  0
   -0.4330    0.7500    0.0000 C   0  0  0  0  0  0  0  0  0  0  0  0
   -1.7321    1.5000    0.0000 C   0  0  0  0  0  0  0  0  0  0  0  0
   -3.0311    0.7500    0.0000 C   0  0  0  0  0  0  0  0  0  0  0  0
   -3.0311   -0.7500    0.0000 C   0  0  0  0  0  0  0  0  0  0  0  0
    0.8660    0.0000    0.0000 C   0  0  0  0  0  0  0  0  0  0  0  0
    1.8302    1.1491    0.0000 C   0  0  0  0  0  0  0  0  0  0  0  0
    2.7944    2.2981    0.0000 O   0  0  0  0  0  0  0  0  0  0  0  0
    4.2716    2.0377    0.0000 C   0  0  0  0  0  0  0  0  0  0  0  0
    5.7488    1.7772    0.0000 O   0  0  0  0  0  0  0  0  0  0  0  0
  -13.1992   -8.1900    0.0000 H   0  0  0  0  0  0  0  0  0  0  0  0
  -11.4864   -7.1810    0.0000 H   0  0  0  0  0  0  0  0  0  0  0  0
  -12.2361  -10.0801    0.0000 H   0  0  0  0  0  0  0  0  0  0  0  0
   -9.8825   -7.6904    0.0000 H   0  0  0  0  0  0  0  0  0  0  0  0
  -10.6322  -10.5895    0.0000 H   0  0  0  0  0  0  0  0  0  0  0  0
   -8.8149   -8.0842    0.0000 H   0  0  0  0  0  0  0  0  0  0  0  0
   -9.3829  -11.0071    0.0000 H   0  0  0  0  0  0  0  0  0  0  0  0
   -7.0293   -8.6175    0.0000 H   0  0  0  0  0  0  0  0  0  0  0  0
   -7.9564  -11.4707    0.0000 H   0  0  0  0  0  0  0  0  0  0  0  0
   -6.5298  -11.9342    0.0000 H   0  0  0  0  0  0  0  0  0  0  0  0
   -5.1032  -12.3977    0.0000 H   0  0  0  0  0  0  0  0  0  0  0  0
   -3.2131  -11.4346    0.0000 H   0  0  0  0  0  0  0  0  0  0  0  0
   -2.7496  -10.0081    0.0000 H   0  0  0  0  0  0  0  0  0  0  0  0
   -3.0970   -8.5027    0.0000 H   0  0  0  0  0  0  0  0  0  0  0  0
   -7.0293   -8.6175    0.0000 H   0  0  0  0  0  0  0  0  0  0  0  0
   -3.6449   -7.5237    0.0000 H   0  0  0  0  0  0  0  0  0  0  0  0
   -5.5748   -3.6168    0.0000 H   0  0  0  0  0  0  0  0  0  0  0  0
   -4.1482   -4.0803    0.0000 H   0  0  0  0  0  0  0  0  0  0  0  0
   -4.5390   -7.0491    0.0000 H   0  0  0  0  0  0  0  0  0  0  0  0
   -2.5143   -7.5074    0.0000 H   0  0  0  0  0  0  0  0  0  0  0  0
   -0.4827   -4.1762    0.0000 H   0  0  0  0  0  0  0  0  0  0  0  0
   -0.7078   -6.1512    0.0000 H   0  0  0  0  0  0  0  0  0  0  0  0
   -2.2489   -3.6361    0.0000 H   0  0  0  0  0  0  0  0  0  0  0  0
   -7.0798   -3.1498    0.0000 H   0  0  0  0  0  0  0  0  0  0  0  0
   -8.9169   -3.2347    0.0000 H   0  0  0  0  0  0  0  0  0  0  0  0
   -9.9958   -5.2639    0.0000 H   0  0  0  0  0  0  0  0  0  0  0  0
  -10.0619   -6.2107    0.0000 H   0  0  0  0  0  0  0  0  0  0  0  0
   -9.3535  -10.0214    0.0000 H   0  0  0  0  0  0  0  0  0  0  0  0
  -12.1030   -8.0155    0.0000 H   0  0  0  0  0  0  0  0  0  0  0  0
  -10.9290   -9.9313    0.0000 H   0  0  0  0  0  0  0  0  0  0  0  0
  -10.5900   -6.9562    0.0000 H   0  0  0  0  0  0  0  0  0  0  0  0
   -6.9412   -9.3661    0.0000 H   0  0  0  0  0  0  0  0  0  0  0  0
   -5.8292   -4.7532    0.0000 H   0  0  0  0  0  0  0  0  0  0  0  0
   -1.0883   -5.0900    0.0000 H   0  0  0  0  0  0  0  0  0  0  0  0
   -1.8490   -6.9266    0.0000 H   0  0  0  0  0  0  0  0  0  0  0  0
   -2.6373   -4.0841    0.0000 H   0  0  0  0  0  0  0  0  0  0  0  0
   -3.1736   -8.7758    0.0000 H   0  0  0  0  0  0  0  0  0  0  0  0
   -2.1629   -7.4099    0.0000 H   0  0  0  0  0  0  0  0  0  0  0  0
   -4.6848   -8.4547    0.0000 H   0  0  0  0  0  0  0  0  0  0  0  0
   -5.6451   -5.0570    0.0000 H   0  0  0  0  0  0  0  0  0  0  0  0
   -1.3323   -4.6035    0.0000 H   0  0  0  0  0  0  0  0  0  0  0  0
   -3.8351   -1.2156    0.0000 H   0  0  0  0  0  0  0  0  0  0  0  0
   -2.1350   -1.9372    0.0000 H   0  0  0  0  0  0  0  0  0  0  0  0
   -6.3141   -2.5643    0.0000 H   0  0  0  0  0  0  0  0  0  0  0  0
   -5.0532   -1.2542    0.0000 H   0  0  0  0  0  0  0  0  0  0  0  0
   -1.0817   -3.3366    0.0000 H   0  0  0  0  0  0  0  0  0  0  0  0
   -0.5500   -2.4235    0.0000 H   0  0  0  0  0  0  0  0  0  0  0  0
    0.3170   -2.0490    0.0000 H   0  0  0  0  0  0  0  0  0  0  0  0
    0.1530    2.1308    0.0000 H   0  0  0  0  0  0  0  0  0  0  0  0
   -1.7321    3.0000    0.0000 H   0  0  0  0  0  0  0  0  0  0  0  0
   -4.3301    1.5000    0.0000 H   0  0  0  0  0  0  0  0  0  0  0  0
   -4.4218   -0.1881    0.0000 H   0  0  0  0  0  0  0  0  0  0  0  0
    1.8302   -1.1491    0.0000 H   0  0  0  0  0  0  0  0  0  0  0  0
    2.9793    0.1849    0.0000 H   0  0  0  0  0  0  0  0  0  0  0  0
    0.8072    2.2461    0.0000 H   0  0  0  0  0  0  0  0  0  0  0  0
    4.5321    3.5149    0.0000 H   0  0  0  0  0  0  0  0  0  0  0  0
    4.0111    0.5604    0.0000 H   0  0  0  0  0  0  0  0  0  0  0  0
    6.2618    0.3676    0.0000 H   0  0  0  0  0  0  0  0  0  0  0  0
  1  2  1  0
  2  3  1  0
  3  4  1  0
  4  5  1  0
  5  6  1  0
  6  7  1  0
  7  8  1  0
  8  9  1  0
  9 10  2  3
 10 11  1  0
 11 12  1  0
 12 13  1  0
 13 14  1  0
 11 15  1  0
 15 16  1  0
 17 16  1  6
 17 18  1  0
 18 19  1  0
 19 20  1  0
 19 21  1  0
 21 22  1  0
 22 23  1  1
 23 24  1  0
 24 25  1  0
 25 26  1  0
 25 27  1  0
 25 28  1  0
 28 29  1  0
 29 30  1  0
 30 31  1  0
 31 32  1  0
 32 33  1  0
 33 34  1  0
 34 35  1  0
 35 36  1  0
 36 37  1  0
 37 38  2  0
 38 39  1  0
 36 40  1  0
 40 41  1  0
 41 42  1  0
 42 43  1  0
 43 44  1  0
  8  5  1  0
 17 15  1  0
 21 18  1  0
 24 22  1  0
 31 28  1  0
 39 32  1  0
 22 17  1  0
 33 29  1  0
 39 34  1  0
 40 35  1  0
  1 45  1  0
  1 46  1  0
  1 47  1  0
  2 48  1  0
  2 49  1  0
  3 50  1  0
  3 51  1  0
  4 52  1  0
  4 53  1  0
  5 54  1  6
  6 55  1  0
  6 56  1  0
  7 57  1  0
  7 58  1  0
  8 59  1  1
  9 60  1  0
 11 61  1  1
 12 62  1  0
 12 63  1  0
 13 64  1  0
 14 65  1  0
 14 66  1  0
 14 67  1  0
 15 68  1  1
 16 69  1  0
 16 70  1  0
 18 71  1  1
 19 72  1  6
 20 73  1  0
 20 74  1  0
 20 75  1  0
 21 76  1  6
 24 77  1  0
 26 78  1  0
 26 79  1  0
 26 80  1  0
 27 81  1  0
 27 82  1  0
 27 83  1  0
 28 84  1  6
 29 85  1  6
 30 86  1  0
 30 87  1  0
 31 88  1  6
 32 89  1  6
 33 90  1  6
 34 91  1  6
 35 92  1  6
 36 93  1  6
 37 94  1  0
 38 95  1  0
 39 96  1  1
 40 97  1  1
 41 98  1  0
 41 99  1  0
 43100  1  0
 43101  1  0
 44102  1  0
M  END
$$$$
