
     RDKit          2D

 67 72  0  0  0  0  0  0  0  0999 V2000
   -2.0543   -5.4157    0.0000 C   0  0  0  0  0  0  0  0  0  0  0  0
   -1.3043   -6.7148    0.0000 C   0  0  0  0  0  0  0  0  0  0  0  0
   -0.5543   -8.0138    0.0000 C   0  0  0  0  0  0  0  0  0  0  0  0
    0.1957   -9.3128    0.0000 C   0  0  0  0  0  0  0  0  0  0  0  0
    0.9457  -10.6119    0.0000 C   0  0  0  0  0  0  0  0  0  0  0  0
    1.6957  -11.9109    0.0000 C   0  0  0  0  0  0  0  0  0  0  0  0
    0.6350  -12.9716    0.0000 C   0  0  0  0  0  0  0  0  0  0  0  0
    1.6957  -14.0322    0.0000 C   0  0  0  0  0  0  0  0  0  0  0  0
    2.7563  -12.9716    0.0000 C   0  0  0  0  0  0  0  0  0  0  0  0
    3.1446  -11.5227    0.0000 C   0  0  0  0  0  0  0  0  0  0  0  0
    1.4947   -8.5628    0.0000 C   0  0  0  0  0  0  0  0  0  0  0  0
    2.2447   -9.8619    0.0000 C   0  0  0  0  0  0  0  0  0  0  0  0
    3.5438   -9.1119    0.0000 C   0  0  0  0  0  0  0  0  0  0  0  0
    2.7938   -7.8128    0.0000 N   0  0  0  0  0  0  0  0  0  0  0  0
    3.1820   -6.3640    0.0000 O   0  0  0  0  0  0  0  0  0  0  0  0
    2.1213   -5.3033    0.0000 C   0  0  0  0  0  0  0  0  0  0  0  0
    1.0607   -4.2426    0.0000 C   0  0  0  0  0  0  0  0  0  0  0  0
    2.1213   -3.1820    0.0000 C   0  0  0  0  0  0  0  0  0  0  0  0
    1.0607   -2.1213    0.0000 C   0  0  0  0  0  0  0  0  0  0  0  0
    2.1213   -1.0607    0.0000 O   0  0  0  0  0  0  0  0  0  0  0  0
   -0.0000   -1.0607    0.0000 C   0  0  0  0  0  0  0  0  0  0  0  0
    1.0607    0.0000    0.0000 C   0  0  0  0  0  0  0  0  0  0  0  0
    0.0000    1.0607    0.0000 C   0  0  0  0  0  0  0  0  0  0  0  0
   -0.6810    2.3972    0.0000 C   0  0  0  0  0  0  0  0  0  0  0  0
   -2.1625    2.1625    0.0000 C   0  0  0  0  0  0  0  0  0  0  0  0
   -2.3972    0.6810    0.0000 C   0  0  0  0  0  0  0  0  0  0  0  0
   -1.0607    0.0000    0.0000 C   0  0  0  0  0  0  0  0  0  0  0  0
    0.0000   -3.1820    0.0000 O   0  0  0  0  0  0  0  0  0  0  0  0
   -2.8043   -4.1167    0.0000 H   0  0  0  0  0  0  0  0  0  0  0  0
   -3.3534   -6.1657    0.0000 H   0  0  0  0  0  0  0  0  0  0  0  0
   -0.7553   -4.6657    0.0000 H   0  0  0  0  0  0  0  0  0  0  0  0
   -0.1064   -5.8120    0.0000 H   0  0  0  0  0  0  0  0  0  0  0  0
   -2.6034   -7.4648    0.0000 H   0  0  0  0  0  0  0  0  0  0  0  0
    0.6436   -7.1111    0.0000 H   0  0  0  0  0  0  0  0  0  0  0  0
   -1.8534   -8.7638    0.0000 H   0  0  0  0  0  0  0  0  0  0  0  0
   -1.1034  -10.0628    0.0000 H   0  0  0  0  0  0  0  0  0  0  0  0
   -0.4351  -11.1979    0.0000 H   0  0  0  0  0  0  0  0  0  0  0  0
    1.6795  -10.3004    0.0000 H   0  0  0  0  0  0  0  0  0  0  0  0
   -0.4256  -14.0322    0.0000 H   0  0  0  0  0  0  0  0  0  0  0  0
   -0.5470  -12.0481    0.0000 H   0  0  0  0  0  0  0  0  0  0  0  0
    2.7563  -15.0929    0.0000 H   0  0  0  0  0  0  0  0  0  0  0  0
    0.6350  -15.0929    0.0000 H   0  0  0  0  0  0  0  0  0  0  0  0
    4.0554  -13.7216    0.0000 H   0  0  0  0  0  0  0  0  0  0  0  0
    4.6389  -11.6534    0.0000 H   0  0  0  0  0  0  0  0  0  0  0  0
    3.5581  -10.0808    0.0000 H   0  0  0  0  0  0  0  0  0  0  0  0
    0.9087   -7.1821    0.0000 H   0  0  0  0  0  0  0  0  0  0  0  0
    3.2868  -10.9408    0.0000 H   0  0  0  0  0  0  0  0  0  0  0  0
    1.1658  -10.9039    0.0000 H   0  0  0  0  0  0  0  0  0  0  0  0
    4.8428   -8.3619    0.0000 H   0  0  0  0  0  0  0  0  0  0  0  0
    4.2938  -10.4109    0.0000 H   0  0  0  0  0  0  0  0  0  0  0  0
    1.0607   -6.3640    0.0000 H   0  0  0  0  0  0  0  0  0  0  0  0
    3.3034   -4.3798    0.0000 H   0  0  0  0  0  0  0  0  0  0  0  0
   -0.1214   -5.1661    0.0000 H   0  0  0  0  0  0  0  0  0  0  0  0
    3.3034   -2.2585    0.0000 H   0  0  0  0  0  0  0  0  0  0  0  0
    3.3034   -4.1054    0.0000 H   0  0  0  0  0  0  0  0  0  0  0  0
    3.6067   -1.2694    0.0000 H   0  0  0  0  0  0  0  0  0  0  0  0
   -1.0607   -2.1213    0.0000 H   0  0  0  0  0  0  0  0  0  0  0  0
    2.1213    1.0607    0.0000 H   0  0  0  0  0  0  0  0  0  0  0  0
    2.3465   -0.7725    0.0000 H   0  0  0  0  0  0  0  0  0  0  0  0
    1.2135    1.9423    0.0000 H   0  0  0  0  0  0  0  0  0  0  0  0
    0.7194    2.9347    0.0000 H   0  0  0  0  0  0  0  0  0  0  0  0
   -1.0692    3.8461    0.0000 H   0  0  0  0  0  0  0  0  0  0  0  0
   -2.2410    3.6605    0.0000 H   0  0  0  0  0  0  0  0  0  0  0  0
   -3.6605    2.2410    0.0000 H   0  0  0  0  0  0  0  0  0  0  0  0
   -3.8461    1.0692    0.0000 H   0  0  0  0  0  0  0  0  0  0  0  0
   -2.9347   -0.7194    0.0000 H   0  0  0  0  0  0  0  0  0  0  0  0
   -1.9423   -1.2135    0.0000 H   0  0  0  0  0  0  0  0  0  0  0  0
  1  2  1  0
  2  3  1  0
  3  4  1  0
  4  5  1  0
  5  6  1  0
  6  7  1  0
  7  8  1  0
  8  9  1  0
  9 10  1  0
  4 11  1  0
 11 12  1  0
 12 13  1  0
 13 14  1  0
 14 15  1  0
 15 16  1  0
 16 17  1  0
 17 18  1  0
 18 19  1  0
 19 20  1  0
 19 21  1  0
 21 22  1  0
 22 23  1  0
 23 24  1  0
 24 25  1  0
 25 26  1  0
 26 27  1  0
 19 28  1  0
  9  6  1  0
 14 11  1  0
 28 17  1  0
 10  6  1  0
 27 21  1  0
 27 23  1  0
  1 29  1  0
  1 30  1  0
  1 31  1  0
  2 32  1  0
  2 33  1  0
  3 34  1  0
  3 35  1  0
  4 36  1  0
  5 37  1  0
  5 38  1  0
  7 39  1  0
  7 40  1  0
  8 41  1  0
  8 42  1  0
  9 43  1  0
 10 44  1  0
 10 45  1  0
 11 46  1  0
 12 47  1  0
 12 48  1  0
 13 49  1  0
 13 50  1  0
 16 51  1  0
 16 52  1  0
 17 53  1  0
 18 54  1  0
 18 55  1  0
 20 56  1  0
 21 57  1  0
 22 58  1  0
 22 59  1  0
 23 60  1  0
 24 61  1  0
 24 62  1  0
 25 63  1  0
 25 64  1  0
 26 65  1  0
 26 66  1  0
 27 67  1  0
M  END
$$$$
