
     RDKit          3D

 14 15  0  0  0  0  0  0  0  0999 V2000
   12.3257  -24.7404   -8.9960 O   0  0  0  0  0  0  0  0  0  0  0  0
   11.1342  -24.1554   -8.5460 C   0  0  0  0  0  0  0  0  0  0  0  0
   10.7933  -24.6276   -7.1169 C   0  0  0  0  0  0  0  0  0  0  0  0
   11.9114  -24.2144   -6.1326 C   0  0  0  0  0  0  0  0  0  0  0  0
   10.4387  -26.1329   -7.0883 C   0  0  0  0  0  0  0  0  0  0  0  0
   11.6552  -27.0732   -7.1767 C   0  0  0  0  0  0  0  0  0  0  0  0
   11.5556  -24.3905   -4.6457 C   0  0  0  0  0  0  0  0  0  0  0  0
   11.4343  -25.8369   -2.5519 C   0  0  0  0  0  0  0  0  0  0  0  0
   12.7141  -25.3484   -1.8238 C   0  0  0  0  0  0  0  0  0  0  0  0
   12.6692  -26.7539   -4.5940 C   0  0  0  0  0  0  0  0  0  0  0  0
   11.5126  -25.8470   -4.1030 C   0  0  0  0  0  0  0  0  0  0  0  0
   11.5527  -28.3211   -6.3065 C   0  0  0  0  0  0  0  0  0  0  0  0
   13.3130  -26.4028   -1.0074 N   0  0  0  0  0  0  0  0  0  0  0  0
   12.6681  -27.3109   -6.0430 C   0  0  0  0  0  0  0  0  0  0  0  0
  2  1  1  0
  3  2  1  0
  4  3  1  0
  5  3  1  0
  6  5  1  0
  7  4  1  0
  9  8  1  0
 11  7  1  0
 11  8  1  0
 11 10  1  0
 12  6  1  0
 13  9  1  0
 14  6  1  0
 14 10  1  0
 14 12  1  0
M  END
$$$$
