
     RDKit          2D

106114  0  0  0  0  0  0  0  0999 V2000
  -18.7498   -4.9570    0.0000 C   0  0  0  0  0  0  0  0  0  0  0  0
  -17.3494   -5.4946    0.0000 C   0  0  0  0  0  0  0  0  0  0  0  0
  -15.9491   -6.0321    0.0000 C   0  0  0  0  0  0  0  0  0  0  0  0
  -14.5487   -6.5697    0.0000 C   0  0  0  0  0  0  0  0  0  0  0  0
  -13.1483   -7.1072    0.0000 C   0  0  0  0  0  0  0  0  0  0  0  0
  -11.7479   -7.6448    0.0000 C   0  0  0  0  0  0  0  0  0  0  0  0
  -12.6108   -5.7069    0.0000 C   0  0  0  0  0  0  0  0  0  0  0  0
  -12.0732   -4.3065    0.0000 C   0  0  0  0  0  0  0  0  0  0  0  0
  -11.5357   -2.9061    0.0000 C   0  0  0  0  0  0  0  0  0  0  0  0
  -10.9981   -1.5058    0.0000 C   0  0  0  0  0  0  0  0  0  0  0  0
  -10.4606   -0.1054    0.0000 C   0  0  0  0  0  0  0  0  0  0  0  0
  -10.1353   -3.4437    0.0000 C   0  0  0  0  0  0  0  0  0  0  0  0
   -8.7349   -3.9812    0.0000 O   0  0  0  0  0  0  0  0  0  0  0  0
  -10.6728   -4.8441    0.0000 S   0  0  0  0  0  0  0  0  0  0  0  0
   -9.7289   -6.0098    0.0000 C   0  0  0  0  0  0  0  0  0  0  0  0
   -8.7849   -7.1755    0.0000 C   0  0  0  0  0  0  0  0  0  0  0  0
   -7.8409   -8.3412    0.0000 C   0  0  0  0  0  0  0  0  0  0  0  0
   -6.8969   -9.5069    0.0000 C   0  0  0  0  0  0  0  0  0  0  0  0
   -5.5850   -8.7797    0.0000 C   0  0  0  0  0  0  0  0  0  0  0  0
   -5.6112  -10.2795    0.0000 C   0  0  0  0  0  0  0  0  0  0  0  0
   -4.2992   -9.5523    0.0000 C   0  0  0  0  0  0  0  0  0  0  0  0
   -3.4389  -10.7810    0.0000 C   0  0  0  0  0  0  0  0  0  0  0  0
   -2.0044  -10.3424    0.0000 C   0  0  0  0  0  0  0  0  0  0  0  0
   -1.9782   -8.8427    0.0000 C   0  0  0  0  0  0  0  0  0  0  0  0
   -3.3965   -8.3543    0.0000 C   0  0  0  0  0  0  0  0  0  0  0  0
   -2.2644   -7.3702    0.0000 C   0  0  0  0  0  0  0  0  0  0  0  0
   -3.0370   -6.0845    0.0000 N   0  0  0  0  0  0  0  0  0  0  0  0
   -0.8641   -6.8327    0.0000 C   0  0  0  0  0  0  0  0  0  0  0  0
    0.2680   -5.8486    0.0000 C   0  0  0  0  0  0  0  0  0  0  0  0
    1.4337   -6.7926    0.0000 C   0  0  0  0  0  0  0  0  0  0  0  0
   -1.1503   -5.3602    0.0000 C   0  0  0  0  0  0  0  0  0  0  0  0
   -0.9156   -3.8787    0.0000 C   0  0  0  0  0  0  0  0  0  0  0  0
   -2.3972   -3.6441    0.0000 C   0  0  0  0  0  0  0  0  0  0  0  0
   -2.1625   -2.1625    0.0000 C   0  0  0  0  0  0  0  0  0  0  0  0
   -2.3972   -0.6810    0.0000 C   0  0  0  0  0  0  0  0  0  0  0  0
   -0.6810   -0.8972    0.0000 C   0  0  0  0  0  0  0  0  0  0  0  0
   -0.6810   -2.3972    0.0000 C   0  0  0  0  0  0  0  0  0  0  0  0
   -0.0000   -1.0607    0.0000 C   0  0  0  0  0  0  0  0  0  0  0  0
    1.0607    0.0000    0.0000 O   0  0  0  0  0  0  0  0  0  0  0  0
    0.0000    1.0607    0.0000 C   0  0  0  0  0  0  0  0  0  0  0  0
   -1.0607    2.1213    0.0000 O   0  0  0  0  0  0  0  0  0  0  0  0
   -1.0607    0.0000    0.0000 C   0  0  0  0  0  0  0  0  0  0  0  0
  -14.0111   -5.1693    0.0000 N   0  0  0  0  0  0  0  0  0  0  0  0
  -15.1768   -6.1133    0.0000 C   0  0  0  0  0  0  0  0  0  0  0  0
  -20.1502   -4.4195    0.0000 H   0  0  0  0  0  0  0  0  0  0  0  0
  -19.2873   -6.3574    0.0000 H   0  0  0  0  0  0  0  0  0  0  0  0
  -18.2122   -3.5567    0.0000 H   0  0  0  0  0  0  0  0  0  0  0  0
  -16.8119   -4.0942    0.0000 H   0  0  0  0  0  0  0  0  0  0  0  0
  -17.8870   -6.8950    0.0000 H   0  0  0  0  0  0  0  0  0  0  0  0
  -15.5862   -4.5767    0.0000 H   0  0  0  0  0  0  0  0  0  0  0  0
  -16.6533   -7.3565    0.0000 H   0  0  0  0  0  0  0  0  0  0  0  0
  -14.9229   -7.2735    0.0000 H   0  0  0  0  0  0  0  0  0  0  0  0
  -14.7415   -7.3432    0.0000 H   0  0  0  0  0  0  0  0  0  0  0  0
  -13.6859   -8.5076    0.0000 H   0  0  0  0  0  0  0  0  0  0  0  0
  -10.4235   -8.3490    0.0000 H   0  0  0  0  0  0  0  0  0  0  0  0
  -12.2855   -9.0452    0.0000 H   0  0  0  0  0  0  0  0  0  0  0  0
  -10.8875   -6.4161    0.0000 H   0  0  0  0  0  0  0  0  0  0  0  0
  -11.2104   -6.2444    0.0000 H   0  0  0  0  0  0  0  0  0  0  0  0
  -13.3976   -3.6023    0.0000 H   0  0  0  0  0  0  0  0  0  0  0  0
  -10.8445   -5.1669    0.0000 H   0  0  0  0  0  0  0  0  0  0  0  0
  -12.9360   -2.3686    0.0000 H   0  0  0  0  0  0  0  0  0  0  0  0
  -12.3985   -0.9682    0.0000 H   0  0  0  0  0  0  0  0  0  0  0  0
   -9.5426   -1.8686    0.0000 H   0  0  0  0  0  0  0  0  0  0  0  0
   -9.9230    1.2950    0.0000 H   0  0  0  0  0  0  0  0  0  0  0  0
  -11.8609    0.4322    0.0000 H   0  0  0  0  0  0  0  0  0  0  0  0
   -9.0602   -0.6429    0.0000 H   0  0  0  0  0  0  0  0  0  0  0  0
   -9.4310   -2.1193    0.0000 H   0  0  0  0  0  0  0  0  0  0  0  0
   -7.5692   -3.0373    0.0000 H   0  0  0  0  0  0  0  0  0  0  0  0
  -10.6315   -7.2078    0.0000 H   0  0  0  0  0  0  0  0  0  0  0  0
   -8.5631   -5.0658    0.0000 H   0  0  0  0  0  0  0  0  0  0  0  0
   -9.8268   -8.2545    0.0000 H   0  0  0  0  0  0  0  0  0  0  0  0
   -7.6192   -6.2315    0.0000 H   0  0  0  0  0  0  0  0  0  0  0  0
   -6.6752   -7.3972    0.0000 H   0  0  0  0  0  0  0  0  0  0  0  0
   -9.0066   -9.2852    0.0000 H   0  0  0  0  0  0  0  0  0  0  0  0
   -7.8810  -10.6390    0.0000 H   0  0  0  0  0  0  0  0  0  0  0  0
   -5.5588   -7.2799    0.0000 H   0  0  0  0  0  0  0  0  0  0  0  0
   -5.6373  -11.7793    0.0000 H   0  0  0  0  0  0  0  0  0  0  0  0
   -4.7508  -11.5082    0.0000 H   0  0  0  0  0  0  0  0  0  0  0  0
   -2.8528  -12.1618    0.0000 H   0  0  0  0  0  0  0  0  0  0  0  0
   -1.7182  -11.8149    0.0000 H   0  0  0  0  0  0  0  0  0  0  0  0
   -0.5101  -10.2117    0.0000 H   0  0  0  0  0  0  0  0  0  0  0  0
   -0.4791   -8.8951    0.0000 H   0  0  0  0  0  0  0  0  0  0  0  0
   -4.4935   -7.3313    0.0000 H   0  0  0  0  0  0  0  0  0  0  0  0
   -4.5368   -6.1107    0.0000 H   0  0  0  0  0  0  0  0  0  0  0  0
   -2.3098   -4.7725    0.0000 H   0  0  0  0  0  0  0  0  0  0  0  0
   -0.0915   -8.1184    0.0000 H   0  0  0  0  0  0  0  0  0  0  0  0
    1.1497   -4.6351    0.0000 H   0  0  0  0  0  0  0  0  0  0  0  0
    2.5994   -7.7365    0.0000 H   0  0  0  0  0  0  0  0  0  0  0  0
    2.3777   -5.6268    0.0000 H   0  0  0  0  0  0  0  0  0  0  0  0
    0.6389   -8.0647    0.0000 H   0  0  0  0  0  0  0  0  0  0  0  0
   -2.6118   -5.0227    0.0000 H   0  0  0  0  0  0  0  0  0  0  0  0
    0.5835   -3.9310    0.0000 H   0  0  0  0  0  0  0  0  0  0  0  0
   -3.8787   -3.4094    0.0000 H   0  0  0  0  0  0  0  0  0  0  0  0
   -2.6318   -5.1256    0.0000 H   0  0  0  0  0  0  0  0  0  0  0  0
   -3.6625   -2.1625    0.0000 H   0  0  0  0  0  0  0  0  0  0  0  0
   -3.7337    0.0000    0.0000 H   0  0  0  0  0  0  0  0  0  0  0  0
    0.8190   -0.8972    0.0000 H   0  0  0  0  0  0  0  0  0  0  0  0
   -0.3180    0.5583    0.0000 H   0  0  0  0  0  0  0  0  0  0  0  0
    1.2135   -1.9423    0.0000 H   0  0  0  0  0  0  0  0  0  0  0  0
    1.0607    2.1213    0.0000 H   0  0  0  0  0  0  0  0  0  0  0  0
   -0.6724    3.5702    0.0000 H   0  0  0  0  0  0  0  0  0  0  0  0
   -1.9423    1.2135    0.0000 H   0  0  0  0  0  0  0  0  0  0  0  0
  -14.4246   -3.7274    0.0000 H   0  0  0  0  0  0  0  0  0  0  0  0
  -16.2188   -7.1923    0.0000 H   0  0  0  0  0  0  0  0  0  0  0  0
  -15.9717   -4.8412    0.0000 H   0  0  0  0  0  0  0  0  0  0  0  0
  -14.5430   -7.4728    0.0000 H   0  0  0  0  0  0  0  0  0  0  0  0
  1  2  1  0
  2  3  1  0
  3  4  1  0
  4  5  1  0
  5  6  1  0
  5  7  1  0
  7  8  1  0
  8  9  1  0
  9 10  1  0
 10 11  1  0
  9 12  1  0
 12 13  1  0
 12 14  1  0
 14 15  1  0
 15 16  1  0
 16 17  1  0
 17 18  1  0
 18 19  1  0
 19 20  1  0
 20 21  1  0
 21 22  1  0
 22 23  1  0
 23 24  1  0
 24 25  1  0
 25 26  1  0
 26 27  1  0
 26 28  1  0
 28 29  1  0
 29 30  1  0
 29 31  1  0
 31 32  1  0
 32 33  1  0
 33 34  1  0
 34 35  1  0
 35 36  1  0
 36 37  1  0
 37 38  1  0
 38 39  1  0
 39 40  1  0
 40 41  1  0
 40 42  1  0
  7 43  1  0
 43 44  1  0
 20 18  1  0
 25 21  1  0
 31 28  1  0
 37 32  1  0
 42 38  1  0
 21 19  1  0
 26 24  1  0
 37 34  1  0
 42 35  1  0
  1 45  1  0
  1 46  1  0
  1 47  1  0
  2 48  1  0
  2 49  1  0
  3 50  1  0
  3 51  1  0
  4 52  1  0
  4 53  1  0
  5 54  1  0
  6 55  1  0
  6 56  1  0
  6 57  1  0
  7 58  1  0
  8 59  1  0
  8 60  1  0
  9 61  1  0
 10 62  1  0
 10 63  1  0
 11 64  1  0
 11 65  1  0
 11 66  1  0
 12 67  1  0
 13 68  1  0
 15 69  1  0
 15 70  1  0
 16 71  1  0
 16 72  1  0
 17 73  1  0
 17 74  1  0
 18 75  1  0
 19 76  1  0
 20 77  1  0
 22 78  1  0
 22 79  1  0
 23 80  1  0
 23 81  1  0
 24 82  1  0
 25 83  1  0
 27 84  1  0
 27 85  1  0
 28 86  1  0
 29 87  1  0
 30 88  1  0
 30 89  1  0
 30 90  1  0
 31 91  1  0
 32 92  1  0
 33 93  1  0
 33 94  1  0
 34 95  1  0
 35 96  1  0
 36 97  1  0
 36 98  1  0
 38 99  1  0
 40100  1  0
 41101  1  0
 42102  1  0
 43103  1  0
 44104  1  0
 44105  1  0
 44106  1  0
M  END
$$$$
