
     RDKit          2D

 81 84  0  0  0  0  0  0  0  0999 V2000
    3.4495   -3.2612    0.0000 C   0  0  0  0  0  0  0  0  0  0  0  0
    3.7099   -1.7840    0.0000 C   0  0  0  0  0  0  0  0  0  0  0  0
    5.1195   -1.2709    0.0000 C   0  0  0  0  0  0  0  0  0  0  0  0
    6.5290   -0.7579    0.0000 C   0  0  0  0  0  0  0  0  0  0  0  0
    7.9386   -0.2449    0.0000 C   0  0  0  0  0  0  0  0  0  0  0  0
    4.6065    0.1386    0.0000 O   0  0  0  0  0  0  0  0  0  0  0  0
    3.1292    0.3991    0.0000 C   0  0  0  0  0  0  0  0  0  0  0  0
    3.1292    1.8991    0.0000 C   0  0  0  0  0  0  0  0  0  0  0  0
    2.6162    3.3086    0.0000 C   0  0  0  0  0  0  0  0  0  0  0  0
    2.1032    4.7181    0.0000 C   0  0  0  0  0  0  0  0  0  0  0  0
    1.5902    6.1277    0.0000 C   0  0  0  0  0  0  0  0  0  0  0  0
    1.8302    1.1491    0.0000 C   0  0  0  0  0  0  0  0  0  0  0  0
    0.8660    2.2981    0.0000 C   0  0  0  0  0  0  0  0  0  0  0  0
    0.8660    0.0000    0.0000 C   0  0  0  0  0  0  0  0  0  0  0  0
   -0.4330    0.7500    0.0000 C   0  0  0  0  0  0  0  0  0  0  0  0
   -1.4937    1.8107    0.0000 B   0  0  0  0  0  0  0  0  0  0  0  0
   -2.9937    1.8107    0.0000 C   0  0  0  0  0  0  0  0  0  0  0  0
   -4.0543    0.7500    0.0000 C   0  0  0  0  0  0  0  0  0  0  0  0
   -5.5032    0.3618    0.0000 C   0  0  0  0  0  0  0  0  0  0  0  0
   -6.9521   -0.0265    0.0000 O   0  0  0  0  0  0  0  0  0  0  0  0
   -8.0128    1.0342    0.0000 C   0  0  0  0  0  0  0  0  0  0  0  0
   -6.9521    2.0949    0.0000 C   0  0  0  0  0  0  0  0  0  0  0  0
   -9.0734   -0.0265    0.0000 C   0  0  0  0  0  0  0  0  0  0  0  0
  -10.1341    1.0342    0.0000 C   0  0  0  0  0  0  0  0  0  0  0  0
  -11.1948   -0.0265    0.0000 C   0  0  0  0  0  0  0  0  0  0  0  0
  -10.1341   -1.0871    0.0000 C   0  0  0  0  0  0  0  0  0  0  0  0
  -10.1341   -2.5871    0.0000 C   0  0  0  0  0  0  0  0  0  0  0  0
   -4.0543   -0.7500    0.0000 C   0  0  0  0  0  0  0  0  0  0  0  0
   -2.9937   -1.8107    0.0000 C   0  0  0  0  0  0  0  0  0  0  0  0
   -2.6054   -3.2595    0.0000 C   0  0  0  0  0  0  0  0  0  0  0  0
   -1.4937   -1.8107    0.0000 C   0  0  0  0  0  0  0  0  0  0  0  0
   -0.4330   -0.7500    0.0000 C   0  0  0  0  0  0  0  0  0  0  0  0
    2.0399   -3.7742    0.0000 H   0  0  0  0  0  0  0  0  0  0  0  0
    4.5985   -4.2254    0.0000 H   0  0  0  0  0  0  0  0  0  0  0  0
    2.9138   -1.3957    0.0000 H   0  0  0  0  0  0  0  0  0  0  0  0
    5.6325   -2.6805    0.0000 H   0  0  0  0  0  0  0  0  0  0  0  0
    7.0421   -2.1675    0.0000 H   0  0  0  0  0  0  0  0  0  0  0  0
    6.0160    0.6516    0.0000 H   0  0  0  0  0  0  0  0  0  0  0  0
    9.3481    0.2681    0.0000 H   0  0  0  0  0  0  0  0  0  0  0  0
    7.4255    1.1647    0.0000 H   0  0  0  0  0  0  0  0  0  0  0  0
    8.4516   -1.6544    0.0000 H   0  0  0  0  0  0  0  0  0  0  0  0
    2.8263   -0.4333    0.0000 H   0  0  0  0  0  0  0  0  0  0  0  0
    4.6065    2.1595    0.0000 H   0  0  0  0  0  0  0  0  0  0  0  0
    4.0258    3.8216    0.0000 H   0  0  0  0  0  0  0  0  0  0  0  0
    1.8234    3.2253    0.0000 H   0  0  0  0  0  0  0  0  0  0  0  0
    3.5127    5.2312    0.0000 H   0  0  0  0  0  0  0  0  0  0  0  0
    0.6936    4.2051    0.0000 H   0  0  0  0  0  0  0  0  0  0  0  0
    1.0771    7.5372    0.0000 H   0  0  0  0  0  0  0  0  0  0  0  0
    2.9997    6.6407    0.0000 H   0  0  0  0  0  0  0  0  0  0  0  0
    0.1806    5.6147    0.0000 H   0  0  0  0  0  0  0  0  0  0  0  0
    0.0491    3.5562    0.0000 H   0  0  0  0  0  0  0  0  0  0  0  0
    1.3346    2.9431    0.0000 H   0  0  0  0  0  0  0  0  0  0  0  0
   -0.4822    1.6406    0.0000 H   0  0  0  0  0  0  0  0  0  0  0  0
    1.5235   -1.3482    0.0000 H   0  0  0  0  0  0  0  0  0  0  0  0
    0.1650    2.1256    0.0000 H   0  0  0  0  0  0  0  0  0  0  0  0
   -1.0929    3.2561    0.0000 H   0  0  0  0  0  0  0  0  0  0  0  0
   -4.1916    2.7134    0.0000 H   0  0  0  0  0  0  0  0  0  0  0  0
   -2.6054    3.2595    0.0000 H   0  0  0  0  0  0  0  0  0  0  0  0
   -4.9571    1.9479    0.0000 H   0  0  0  0  0  0  0  0  0  0  0  0
   -5.7119    1.8472    0.0000 H   0  0  0  0  0  0  0  0  0  0  0  0
   -5.2945   -1.1236    0.0000 H   0  0  0  0  0  0  0  0  0  0  0  0
   -8.9362    2.2162    0.0000 H   0  0  0  0  0  0  0  0  0  0  0  0
   -5.8915    3.1555    0.0000 H   0  0  0  0  0  0  0  0  0  0  0  0
   -8.0128    3.1555    0.0000 H   0  0  0  0  0  0  0  0  0  0  0  0
   -5.5817    1.4849    0.0000 H   0  0  0  0  0  0  0  0  0  0  0  0
   -8.0128   -1.0871    0.0000 H   0  0  0  0  0  0  0  0  0  0  0  0
  -11.1948    2.0949    0.0000 H   0  0  0  0  0  0  0  0  0  0  0  0
   -9.2106    2.2162    0.0000 H   0  0  0  0  0  0  0  0  0  0  0  0
  -12.2554   -1.0871    0.0000 H   0  0  0  0  0  0  0  0  0  0  0  0
  -12.2554    1.0342    0.0000 H   0  0  0  0  0  0  0  0  0  0  0  0
  -11.4331   -3.3371    0.0000 H   0  0  0  0  0  0  0  0  0  0  0  0
   -8.8351   -3.3371    0.0000 H   0  0  0  0  0  0  0  0  0  0  0  0
   -4.9571   -1.9479    0.0000 H   0  0  0  0  0  0  0  0  0  0  0  0
   -5.5461   -0.9069    0.0000 H   0  0  0  0  0  0  0  0  0  0  0  0
   -4.1916   -2.7134    0.0000 H   0  0  0  0  0  0  0  0  0  0  0  0
   -2.2172   -4.7084    0.0000 H   0  0  0  0  0  0  0  0  0  0  0  0
   -4.0543   -3.6478    0.0000 H   0  0  0  0  0  0  0  0  0  0  0  0
   -1.1200   -3.0508    0.0000 H   0  0  0  0  0  0  0  0  0  0  0  0
   -0.1946   -2.5607    0.0000 H   0  0  0  0  0  0  0  0  0  0  0  0
   -1.3368   -3.3024    0.0000 H   0  0  0  0  0  0  0  0  0  0  0  0
    0.4801   -1.9400    0.0000 H   0  0  0  0  0  0  0  0  0  0  0  0
  1  2  2  3
  2  3  1  0
  3  4  1  0
  4  5  1  0
  3  6  1  0
  6  7  1  0
  7  8  1  0
  8  9  1  0
  9 10  1  0
 10 11  1  0
  8 12  1  0
 12 13  1  0
 12 14  1  0
 14 15  1  0
 15 16  1  0
 16 17  1  0
 17 18  1  0
 18 19  1  0
 19 20  1  0
 20 21  1  0
 21 22  1  0
 21 23  1  0
 23 24  1  0
 24 25  1  0
 25 26  1  0
 26 27  2  3
 18 28  1  0
 28 29  1  0
 29 30  1  0
 29 31  1  0
 31 32  1  0
 12  7  1  0
 32 14  1  0
 32 15  1  0
 26 23  1  0
  1 33  1  0
  1 34  1  0
  2 35  1  0
  3 36  1  0
  4 37  1  0
  4 38  1  0
  5 39  1  0
  5 40  1  0
  5 41  1  0
  7 42  1  0
  8 43  1  0
  9 44  1  0
  9 45  1  0
 10 46  1  0
 10 47  1  0
 11 48  1  0
 11 49  1  0
 11 50  1  0
 13 51  1  0
 13 52  1  0
 13 53  1  0
 14 54  1  0
 15 55  1  0
 16 56  1  0
 17 57  1  0
 17 58  1  0
 18 59  1  0
 19 60  1  0
 19 61  1  0
 21 62  1  0
 22 63  1  0
 22 64  1  0
 22 65  1  0
 23 66  1  0
 24 67  1  0
 24 68  1  0
 25 69  1  0
 25 70  1  0
 27 71  1  0
 27 72  1  0
 28 73  1  0
 28 74  1  0
 29 75  1  0
 30 76  1  0
 30 77  1  0
 30 78  1  0
 31 79  1  0
 31 80  1  0
 32 81  1  0
M  END
$$$$
