
     RDKit          2D

112115  0  0  0  0  0  0  0  0999 V2000
    0.3493   -3.7396    0.0000 C   0  0  0  0  0  0  0  0  0  0  0  0
    1.4640   -4.7433    0.0000 C   0  0  0  0  0  0  0  0  0  0  0  0
    2.8906   -4.2798    0.0000 C   0  0  0  0  0  0  0  0  0  0  0  0
    2.4271   -2.8532    0.0000 C   0  0  0  0  0  0  0  0  0  0  0  0
    1.0005   -3.3167    0.0000 C   0  0  0  0  0  0  0  0  0  0  0  0
    1.9635   -1.4266    0.0000 C   0  0  0  0  0  0  0  0  0  0  0  0
    2.4271    0.0000    0.0000 C   0  0  0  0  0  0  0  0  0  0  0  0
    1.9635    1.4266    0.0000 O   0  0  0  0  0  0  0  0  0  0  0  0
    0.7500    2.3083    0.0000 C   0  0  0  0  0  0  0  0  0  0  0  0
    1.9635    3.1899    0.0000 C   0  0  0  0  0  0  0  0  0  0  0  0
   -0.7500    2.3083    0.0000 C   0  0  0  0  0  0  0  0  0  0  0  0
   -0.2865    3.7348    0.0000 C   0  0  0  0  0  0  0  0  0  0  0  0
   -1.9635    1.4266    0.0000 C   0  0  0  0  0  0  0  0  0  0  0  0
   -3.1771    2.3083    0.0000 C   0  0  0  0  0  0  0  0  0  0  0  0
   -4.3906    3.1899    0.0000 C   0  0  0  0  0  0  0  0  0  0  0  0
   -2.4271    0.0000    0.0000 C   0  0  0  0  0  0  0  0  0  0  0  0
   -1.9635   -1.4266    0.0000 C   0  0  0  0  0  0  0  0  0  0  0  0
   -0.7500   -2.3083    0.0000 C   0  0  0  0  0  0  0  0  0  0  0  0
   -1.2135   -3.7348    0.0000 C   0  0  0  0  0  0  0  0  0  0  0  0
    0.7500   -2.3083    0.0000 C   0  0  0  0  0  0  0  0  0  0  0  0
    3.3541   -5.7063    0.0000 C   0  0  0  0  0  0  0  0  0  0  0  0
    2.0297   -6.4105    0.0000 C   0  0  0  0  0  0  0  0  0  0  0  0
    4.2776   -6.8884    0.0000 C   0  0  0  0  0  0  0  0  0  0  0  0
    5.5497   -7.6832    0.0000 C   0  0  0  0  0  0  0  0  0  0  0  0
    4.8395   -5.4976    0.0000 C   0  0  0  0  0  0  0  0  0  0  0  0
    4.8919   -3.9985    0.0000 C   0  0  0  0  0  0  0  0  0  0  0  0
    3.4500   -3.5850    0.0000 O   0  0  0  0  0  1  0  0  0  0  0  0
    6.3909   -4.0508    0.0000 N   0  0  0  0  0  2  0  0  0  0  0  0
    7.1858   -2.7788    0.0000 C   0  0  0  0  0  0  0  0  0  0  0  0
    8.4579   -3.5736    0.0000 C   0  0  0  0  0  0  0  0  0  0  0  0
    5.9137   -1.9839    0.0000 C   0  0  0  0  0  0  0  0  0  0  0  0
    6.7086   -0.7118    0.0000 O   0  0  0  0  0  0  0  0  0  0  0  0
    7.9807   -1.5067    0.0000 C   0  0  0  0  0  0  0  0  0  0  0  0
    9.2528   -2.3016    0.0000 C   0  0  0  0  0  0  0  0  0  0  0  0
   10.5248   -3.0965    0.0000 C   0  0  0  0  0  0  0  0  0  0  0  0
    8.7756   -0.2346    0.0000 C   0  0  0  0  0  0  0  0  0  0  0  0
    9.5705    1.0374    0.0000 O   0  0  0  0  0  0  0  0  0  0  0  0
   10.0476   -1.0295    0.0000 C   0  0  0  0  0  0  0  0  0  0  0  0
   11.3197   -1.8244    0.0000 C   0  0  0  0  0  0  0  0  0  0  0  0
   10.5248   -3.0965    0.0000 C   0  0  0  0  0  0  0  0  0  0  0  0
   12.5918   -2.6193    0.0000 C   0  0  0  0  0  0  0  0  0  0  0  0
   13.8639   -3.4141    0.0000 C   0  0  0  0  0  0  0  0  0  0  0  0
   15.1359   -4.2090    0.0000 C   0  0  0  0  0  0  0  0  0  0  0  0
   16.6032   -4.5209    0.0000 C   0  0  0  0  0  0  0  0  0  0  0  0
   16.1396   -3.0943    0.0000 C   0  0  0  0  0  0  0  0  0  0  0  0
   -0.8164   -4.6837    0.0000 H   0  0  0  0  0  0  0  0  0  0  0  0
    0.1145   -2.2581    0.0000 H   0  0  0  0  0  0  0  0  0  0  0  0
    1.1521   -6.2105    0.0000 H   0  0  0  0  0  0  0  0  0  0  0  0
    4.1626   -3.4848    0.0000 H   0  0  0  0  0  0  0  0  0  0  0  0
    3.8536   -2.3896    0.0000 H   0  0  0  0  0  0  0  0  0  0  0  0
    1.1050   -4.8130    0.0000 H   0  0  0  0  0  0  0  0  0  0  0  0
    0.3665   -1.9573    0.0000 H   0  0  0  0  0  0  0  0  0  0  0  0
   -0.4261   -3.7802    0.0000 H   0  0  0  0  0  0  0  0  0  0  0  0
    3.4523   -1.6094    0.0000 H   0  0  0  0  0  0  0  0  0  0  0  0
    3.6406    0.8817    0.0000 H   0  0  0  0  0  0  0  0  0  0  0  0
    3.7390   -0.7272    0.0000 H   0  0  0  0  0  0  0  0  0  0  0  0
    0.6454    3.8046    0.0000 H   0  0  0  0  0  0  0  0  0  0  0  0
    1.0818    4.4035    0.0000 H   0  0  0  0  0  0  0  0  0  0  0  0
    2.8452    1.9764    0.0000 H   0  0  0  0  0  0  0  0  0  0  0  0
    3.1771    4.0716    0.0000 H   0  0  0  0  0  0  0  0  0  0  0  0
   -1.8470    3.3313    0.0000 H   0  0  0  0  0  0  0  0  0  0  0  0
   -1.6459    4.3688    0.0000 H   0  0  0  0  0  0  0  0  0  0  0  0
    1.1401    3.2713    0.0000 H   0  0  0  0  0  0  0  0  0  0  0  0
    0.1771    5.1614    0.0000 H   0  0  0  0  0  0  0  0  0  0  0  0
   -4.0587    1.0947    0.0000 H   0  0  0  0  0  0  0  0  0  0  0  0
   -2.6152    3.6991    0.0000 H   0  0  0  0  0  0  0  0  0  0  0  0
   -3.5089    4.4035    0.0000 H   0  0  0  0  0  0  0  0  0  0  0  0
   -5.2723    1.9764    0.0000 H   0  0  0  0  0  0  0  0  0  0  0  0
   -5.6041    4.0716    0.0000 H   0  0  0  0  0  0  0  0  0  0  0  0
   -3.9271    0.0000    0.0000 H   0  0  0  0  0  0  0  0  0  0  0  0
   -2.4271   -2.8532    0.0000 H   0  0  0  0  0  0  0  0  0  0  0  0
   -3.4635   -1.4266    0.0000 H   0  0  0  0  0  0  0  0  0  0  0  0
   -2.6807   -4.0467    0.0000 H   0  0  0  0  0  0  0  0  0  0  0  0
   -0.2098   -4.8496    0.0000 H   0  0  0  0  0  0  0  0  0  0  0  0
    1.7141   -3.4574    0.0000 H   0  0  0  0  0  0  0  0  0  0  0  0
   -0.1941   -3.4739    0.0000 H   0  0  0  0  0  0  0  0  0  0  0  0
    2.3925   -7.8660    0.0000 H   0  0  0  0  0  0  0  0  0  0  0  0
    2.7339   -7.7350    0.0000 H   0  0  0  0  0  0  0  0  0  0  0  0
    0.7053   -7.1148    0.0000 H   0  0  0  0  0  0  0  0  0  0  0  0
    3.5735   -8.2128    0.0000 H   0  0  0  0  0  0  0  0  0  0  0  0
    4.7548   -8.9553    0.0000 H   0  0  0  0  0  0  0  0  0  0  0  0
    6.4937   -6.5175    0.0000 H   0  0  0  0  0  0  0  0  0  0  0  0
    6.8217   -8.4781    0.0000 H   0  0  0  0  0  0  0  0  0  0  0  0
    6.3338   -5.6283    0.0000 H   0  0  0  0  0  0  0  0  0  0  0  0
    4.7611   -2.5042    0.0000 H   0  0  0  0  0  0  0  0  0  0  0  0
    9.5370   -2.5317    0.0000 H   0  0  0  0  0  0  0  0  0  0  0  0
    7.6630   -4.8457    0.0000 H   0  0  0  0  0  0  0  0  0  0  0  0
    9.6236   -4.5177    0.0000 H   0  0  0  0  0  0  0  0  0  0  0  0
    4.6417   -1.1890    0.0000 H   0  0  0  0  0  0  0  0  0  0  0  0
    4.7157   -2.8865    0.0000 H   0  0  0  0  0  0  0  0  0  0  0  0
   10.4508   -1.3990    0.0000 H   0  0  0  0  0  0  0  0  0  0  0  0
   10.1968   -1.1359    0.0000 H   0  0  0  0  0  0  0  0  0  0  0  0
   11.7229   -2.1938    0.0000 H   0  0  0  0  0  0  0  0  0  0  0  0
   11.4689   -1.9308    0.0000 H   0  0  0  0  0  0  0  0  0  0  0  0
   11.4275   -4.2945    0.0000 H   0  0  0  0  0  0  0  0  0  0  0  0
    7.5035    0.5603    0.0000 H   0  0  0  0  0  0  0  0  0  0  0  0
   11.0377    1.3494    0.0000 H   0  0  0  0  0  0  0  0  0  0  0  0
   11.1267    0.0124    0.0000 H   0  0  0  0  0  0  0  0  0  0  0  0
   10.8425    0.2426    0.0000 H   0  0  0  0  0  0  0  0  0  0  0  0
   12.1146   -0.5523    0.0000 H   0  0  0  0  0  0  0  0  0  0  0  0
   11.6905   -4.0405    0.0000 H   0  0  0  0  0  0  0  0  0  0  0  0
   11.8843   -3.7303    0.0000 H   0  0  0  0  0  0  0  0  0  0  0  0
    9.8910   -4.4559    0.0000 H   0  0  0  0  0  0  0  0  0  0  0  0
   13.3867   -1.3472    0.0000 H   0  0  0  0  0  0  0  0  0  0  0  0
   12.3057   -4.0917    0.0000 H   0  0  0  0  0  0  0  0  0  0  0  0
   13.0690   -4.6862    0.0000 H   0  0  0  0  0  0  0  0  0  0  0  0
   14.4978   -2.0547    0.0000 H   0  0  0  0  0  0  0  0  0  0  0  0
   14.5740   -5.5998    0.0000 H   0  0  0  0  0  0  0  0  0  0  0  0
   16.5508   -6.0200    0.0000 H   0  0  0  0  0  0  0  0  0  0  0  0
   18.0886   -4.3121    0.0000 H   0  0  0  0  0  0  0  0  0  0  0  0
   17.4641   -2.3901    0.0000 H   0  0  0  0  0  0  0  0  0  0  0  0
   15.3671   -1.8085    0.0000 H   0  0  0  0  0  0  0  0  0  0  0  0
  1  2  2  0
  2  3  1  0
  3  4  1  0
  4  5  1  0
  4  6  1  0
  6  7  1  0
  7  8  1  0
  8  9  1  0
  9 10  1  0
  9 11  1  0
 11 12  1  0
 11 13  1  0
 13 14  1  0
 14 15  1  0
 13 16  2  0
 16 17  1  0
 17 18  1  0
 18 19  2  0
 18 20  1  0
  3 21  1  0
 21 22  1  0
 21 23  1  0
 23 24  1  0
 23 25  1  0
 25 26  1  0
 26 27  1  0
 26 28  1  0
 28 29  1  0
 29 30  1  0
 29 31  1  0
 31 32  1  0
 32 33  1  0
 33 34  1  0
 34 35  1  0
 33 36  1  0
 36 37  1  0
 36 38  1  0
 38 39  1  0
 39 40  1  0
 39 41  1  0
 41 42  1  0
 42 43  1  0
 43 44  1  0
 44 45  1  0
 20  6  1  0
 25 21  1  0
 33 29  1  0
 45 43  1  0
  1 46  1  0
  1 47  1  0
  2 48  1  0
  3 49  1  0
  4 50  1  0
  5 51  1  0
  5 52  1  0
  5 53  1  0
  6 54  1  0
  7 55  1  0
  7 56  1  0
  9 57  1  0
 10 58  1  0
 10 59  1  0
 10 60  1  0
 11 61  1  0
 12 62  1  0
 12 63  1  0
 12 64  1  0
 14 65  1  0
 14 66  1  0
 15 67  1  0
 15 68  1  0
 15 69  1  0
 16 70  1  0
 17 71  1  0
 17 72  1  0
 19 73  1  0
 19 74  1  0
 20 75  1  0
 20 76  1  0
 22 77  1  0
 22 78  1  0
 22 79  1  0
 23 80  1  0
 24 81  1  0
 24 82  1  0
 24 83  1  0
 25 84  1  0
 26 85  1  0
 30 86  1  0
 30 87  1  0
 30 88  1  0
 31 89  1  0
 31 90  1  0
 34 91  1  0
 34 92  1  0
 35 93  1  0
 35 94  1  0
 35 95  1  0
 36 96  1  0
 37 97  1  0
 38 98  1  0
 38 99  1  0
 39100  1  0
 40101  1  0
 40102  1  0
 40103  1  0
 41104  1  0
 41105  1  0
 42106  1  0
 42107  1  0
 43108  1  0
 44109  1  0
 44110  1  0
 45111  1  0
 45112  1  0
M  RAD  2  27   2  28   2
M  END
$$$$
