
     RDKit          2D

 47 52  0  0  0  0  0  0  0  0999 V2000
    4.5622    5.5981    0.0000 C   0  0  0  0  0  0  0  0  0  0  0  0
    3.2631    4.8481    0.0000 C   0  0  0  0  0  0  0  0  0  0  0  0
    1.9641    4.0981    0.0000 C   0  0  0  0  0  0  0  0  0  0  0  0
    0.6651    4.8481    0.0000 C   0  0  0  0  0  0  0  0  0  0  0  0
   -0.6340    4.0981    0.0000 C   0  0  0  0  0  0  0  0  0  0  0  0
   -1.9330    3.3481    0.0000 C   0  0  0  0  0  0  0  0  0  0  0  0
   -3.2321    2.5981    0.0000 C   0  0  0  0  0  0  0  0  0  0  0  0
   -3.9821    3.8971    0.0000 C   0  0  0  0  0  0  0  0  0  0  0  0
   -5.1311    2.9329    0.0000 C   0  0  0  0  0  0  0  0  0  0  0  0
   -6.5407    3.4460    0.0000 C   0  0  0  0  0  0  0  0  0  0  0  0
   -6.8011    4.9232    0.0000 C   0  0  0  0  0  0  0  0  0  0  0  0
   -5.9408    6.1519    0.0000 C   0  0  0  0  0  0  0  0  0  0  0  0
   -4.7120    5.2915    0.0000 N   0  0  0  0  0  0  0  0  0  0  0  0
   -5.5724    4.0628    0.0000 C   0  0  0  0  0  0  0  0  0  0  0  0
   -6.4328    2.8341    0.0000 C   0  0  0  0  0  0  0  0  0  0  0  0
   -2.4821    1.2990    0.0000 C   0  0  0  0  0  0  0  0  0  0  0  0
   -1.1830    2.0490    0.0000 N   0  0  0  0  0  0  0  0  0  0  0  0
   -0.4330    0.7500    0.0000 C   0  0  0  0  0  0  0  0  0  0  0  0
    0.8660    0.0000    0.0000 N   0  0  0  0  0  0  0  0  0  0  0  0
   -0.4330   -0.7500    0.0000 C   0  0  0  0  0  0  0  0  0  0  0  0
   -1.7321    0.0000    0.0000 N   0  0  0  0  0  0  0  0  0  0  0  0
    5.8612    6.3481    0.0000 H   0  0  0  0  0  0  0  0  0  0  0  0
    3.8122    6.8971    0.0000 H   0  0  0  0  0  0  0  0  0  0  0  0
    5.3122    4.2990    0.0000 H   0  0  0  0  0  0  0  0  0  0  0  0
    4.0131    3.5490    0.0000 H   0  0  0  0  0  0  0  0  0  0  0  0
    2.5131    6.1471    0.0000 H   0  0  0  0  0  0  0  0  0  0  0  0
    1.9641    2.5981    0.0000 H   0  0  0  0  0  0  0  0  0  0  0  0
    0.6651    6.3481    0.0000 H   0  0  0  0  0  0  0  0  0  0  0  0
    0.1160    2.7990    0.0000 H   0  0  0  0  0  0  0  0  0  0  0  0
   -1.3840    5.3971    0.0000 H   0  0  0  0  0  0  0  0  0  0  0  0
   -2.5191    4.7288    0.0000 H   0  0  0  0  0  0  0  0  0  0  0  0
   -4.3110    1.5560    0.0000 H   0  0  0  0  0  0  0  0  0  0  0  0
   -2.6456    4.5781    0.0000 H   0  0  0  0  0  0  0  0  0  0  0  0
   -5.7172    1.5522    0.0000 H   0  0  0  0  0  0  0  0  0  0  0  0
   -4.1081    1.8359    0.0000 H   0  0  0  0  0  0  0  0  0  0  0  0
   -8.0295    3.6288    0.0000 H   0  0  0  0  0  0  0  0  0  0  0  0
   -6.9793    2.0115    0.0000 H   0  0  0  0  0  0  0  0  0  0  0  0
   -8.2783    4.6627    0.0000 H   0  0  0  0  0  0  0  0  0  0  0  0
   -5.0804    7.3806    0.0000 H   0  0  0  0  0  0  0  0  0  0  0  0
   -7.1695    7.0123    0.0000 H   0  0  0  0  0  0  0  0  0  0  0  0
   -4.5884    2.9307    0.0000 H   0  0  0  0  0  0  0  0  0  0  0  0
   -7.1369    1.5096    0.0000 H   0  0  0  0  0  0  0  0  0  0  0  0
   -7.7572    3.5383    0.0000 H   0  0  0  0  0  0  0  0  0  0  0  0
   -5.4487    1.7020    0.0000 H   0  0  0  0  0  0  0  0  0  0  0  0
   -3.7811    0.5490    0.0000 H   0  0  0  0  0  0  0  0  0  0  0  0
    2.3660    0.0000    0.0000 H   0  0  0  0  0  0  0  0  0  0  0  0
   -0.4330   -2.2500    0.0000 H   0  0  0  0  0  0  0  0  0  0  0  0
  1  2  1  0
  2  3  1  0
  3  4  2  3
  4  5  1  0
  5  6  1  0
  6  7  1  0
  7  8  1  0
  8  9  1  0
  9 10  1  0
 10 11  1  0
 11 12  1  0
 12 13  1  0
 13 14  1  0
 14 15  1  0
  7 16  1  0
 16 17  1  0
 17 18  1  0
 18 19  1  1
 19 20  1  0
 20 21  1  0
 17  6  1  0
 20 18  1  0
 13  8  1  0
 21 16  1  0
 14 11  1  0
 21 18  1  0
  1 22  1  0
  1 23  1  0
  1 24  1  0
  2 25  1  0
  2 26  1  0
  3 27  1  0
  4 28  1  0
  5 29  1  0
  5 30  1  0
  6 31  1  1
  7 32  1  1
  8 33  1  1
  9 34  1  0
  9 35  1  0
 10 36  1  0
 10 37  1  0
 11 38  1  6
 12 39  1  0
 12 40  1  0
 14 41  1  6
 15 42  1  0
 15 43  1  0
 15 44  1  0
 16 45  1  1
 19 46  1  0
 20 47  1  6
M  END
$$$$
