
     RDKit          2D

 58 59  0  0  0  0  0  0  0  0999 V2000
   -0.4330   12.7500    0.0000 C   0  0  0  0  0  0  0  0  0  0  0  0
   -0.4330   11.2500    0.0000 C   0  0  0  0  0  0  0  0  0  0  0  0
   -0.4330    9.7500    0.0000 C   0  0  0  0  0  0  0  0  0  0  0  0
   -0.4330    8.2500    0.0000 C   0  0  0  0  0  0  0  0  0  0  0  0
   -0.4330    6.7500    0.0000 C   0  0  0  0  0  0  0  0  0  0  0  0
   -0.4330    5.2500    0.0000 C   0  0  0  0  0  0  0  0  0  0  0  0
   -0.4330    3.7500    0.0000 C   0  0  0  0  0  0  0  0  0  0  0  0
   -0.4330    2.2500    0.0000 C   0  0  0  0  0  0  0  0  0  0  0  0
   -0.4330    0.7500    0.0000 C   0  0  0  0  0  0  0  0  0  0  0  0
    0.8660    0.0000    0.0000 C   0  0  0  0  0  0  0  0  0  0  0  0
    1.8302    1.1491    0.0000 C   0  0  0  0  0  0  0  0  0  0  0  0
    2.7944    2.2981    0.0000 C   0  0  0  0  0  0  0  0  0  0  0  0
    3.9435    1.3340    0.0000 Br  0  0  0  0  0  0  0  0  0  0  0  0
    3.7586    3.4472    0.0000 C   0  0  0  0  0  0  0  0  0  0  0  0
    4.7228    4.5963    0.0000 C   0  0  0  0  0  0  0  0  0  0  0  0
   -0.4330   -0.7500    0.0000 C   0  0  0  0  0  0  0  0  0  0  0  0
   -1.7321    0.0000    0.0000 C   0  0  0  0  0  0  0  0  0  0  0  0
   -2.6962   -1.1491    0.0000 C   0  0  0  0  0  0  0  0  0  0  0  0
   -3.8453   -0.1849    0.0000 F   0  0  0  0  0  0  0  0  0  0  0  0
   -3.6604   -2.2981    0.0000 C   0  0  0  0  0  0  0  0  0  0  0  0
   -4.6246   -3.4472    0.0000 O   0  0  0  0  0  0  0  0  0  0  0  0
   -4.1116   -4.8567    0.0000 C   0  0  0  0  0  0  0  0  0  0  0  0
   -1.9330    3.7500    0.0000 N   0  0  0  0  0  0  0  0  0  0  0  0
   -2.8358    2.5521    0.0000 I   0  0  0  0  0  0  0  0  0  0  0  0
   -0.4330   14.2500    0.0000 H   0  0  0  0  0  0  0  0  0  0  0  0
    1.0670   12.7500    0.0000 H   0  0  0  0  0  0  0  0  0  0  0  0
   -1.9330   12.7500    0.0000 H   0  0  0  0  0  0  0  0  0  0  0  0
    1.0670   11.2500    0.0000 H   0  0  0  0  0  0  0  0  0  0  0  0
   -1.9330   11.2500    0.0000 H   0  0  0  0  0  0  0  0  0  0  0  0
   -1.9330    9.7500    0.0000 H   0  0  0  0  0  0  0  0  0  0  0  0
    1.0670    9.7500    0.0000 H   0  0  0  0  0  0  0  0  0  0  0  0
    1.0670    8.2500    0.0000 H   0  0  0  0  0  0  0  0  0  0  0  0
   -1.9330    8.2500    0.0000 H   0  0  0  0  0  0  0  0  0  0  0  0
   -1.9330    6.7500    0.0000 H   0  0  0  0  0  0  0  0  0  0  0  0
    1.0670    6.7500    0.0000 H   0  0  0  0  0  0  0  0  0  0  0  0
    1.0670    5.2500    0.0000 H   0  0  0  0  0  0  0  0  0  0  0  0
   -1.9218    5.4328    0.0000 H   0  0  0  0  0  0  0  0  0  0  0  0
    0.9069    3.9146    0.0000 H   0  0  0  0  0  0  0  0  0  0  0  0
   -1.9218    2.0672    0.0000 H   0  0  0  0  0  0  0  0  0  0  0  0
    0.4461    2.3580    0.0000 H   0  0  0  0  0  0  0  0  0  0  0  0
    1.8302   -1.1491    0.0000 H   0  0  0  0  0  0  0  0  0  0  0  0
    2.9793    0.1849    0.0000 H   0  0  0  0  0  0  0  0  0  0  0  0
    1.2262    1.7969    0.0000 H   0  0  0  0  0  0  0  0  0  0  0  0
    1.8737    3.2855    0.0000 H   0  0  0  0  0  0  0  0  0  0  0  0
    4.9076    2.4830    0.0000 H   0  0  0  0  0  0  0  0  0  0  0  0
    2.6095    4.4114    0.0000 H   0  0  0  0  0  0  0  0  0  0  0  0
    5.6869    5.7453    0.0000 H   0  0  0  0  0  0  0  0  0  0  0  0
    5.8718    3.6321    0.0000 H   0  0  0  0  0  0  0  0  0  0  0  0
    3.5737    5.5604    0.0000 H   0  0  0  0  0  0  0  0  0  0  0  0
   -0.4330   -2.2500    0.0000 H   0  0  0  0  0  0  0  0  0  0  0  0
   -2.6962    1.1491    0.0000 H   0  0  0  0  0  0  0  0  0  0  0  0
   -1.5472   -2.1132    0.0000 H   0  0  0  0  0  0  0  0  0  0  0  0
   -4.8095   -1.3340    0.0000 H   0  0  0  0  0  0  0  0  0  0  0  0
   -2.5113   -3.2623    0.0000 H   0  0  0  0  0  0  0  0  0  0  0  0
   -3.5985   -6.2663    0.0000 H   0  0  0  0  0  0  0  0  0  0  0  0
   -5.5211   -5.3698    0.0000 H   0  0  0  0  0  0  0  0  0  0  0  0
   -2.7020   -4.3437    0.0000 H   0  0  0  0  0  0  0  0  0  0  0  0
   -2.8358    4.9479    0.0000 H   0  0  0  0  0  0  0  0  0  0  0  0
  1  2  1  0
  2  3  1  0
  3  4  1  0
  4  5  1  0
  5  6  1  0
  6  7  1  0
  7  8  1  0
  8  9  1  0
  9 10  1  0
 10 11  1  0
 11 12  1  0
 12 13  1  0
 12 14  1  0
 14 15  1  0
 10 16  1  0
 16 17  1  0
 17 18  1  0
 18 19  1  0
 18 20  1  0
 20 21  1  0
 21 22  1  0
  7 23  1  0
 23 24  1  0
 16  9  1  0
 17  9  1  0
  1 25  1  0
  1 26  1  0
  1 27  1  0
  2 28  1  0
  2 29  1  0
  3 30  1  0
  3 31  1  0
  4 32  1  0
  4 33  1  0
  5 34  1  0
  5 35  1  0
  6 36  1  0
  6 37  1  0
  7 38  1  0
  8 39  1  0
  8 40  1  0
 10 41  1  0
 11 42  1  0
 11 43  1  0
 12 44  1  0
 14 45  1  0
 14 46  1  0
 15 47  1  0
 15 48  1  0
 15 49  1  0
 16 50  1  0
 17 51  1  0
 18 52  1  0
 20 53  1  0
 20 54  1  0
 22 55  1  0
 22 56  1  0
 22 57  1  0
 23 58  1  0
M  END
$$$$
