
     RDKit          2D

 52 54  0  0  0  0  0  0  0  0999 V2000
   -8.6369   -6.9091    0.0000 C   0  0  0  0  0  0  0  0  0  0  0  0
   -7.1597   -6.6486    0.0000 C   0  0  0  0  0  0  0  0  0  0  0  0
   -6.6467   -5.2391    0.0000 C   0  0  0  0  0  0  0  0  0  0  0  0
   -6.1336   -3.8296    0.0000 C   0  0  0  0  0  0  0  0  0  0  0  0
   -5.6206   -2.4200    0.0000 C   0  0  0  0  0  0  0  0  0  0  0  0
   -4.1434   -2.1595    0.0000 C   0  0  0  0  0  0  0  0  0  0  0  0
   -3.6304   -0.7500    0.0000 C   0  0  0  0  0  0  0  0  0  0  0  0
   -3.6304    0.7500    0.0000 C   0  0  0  0  0  0  0  0  0  0  0  0
   -2.3313    1.5000    0.0000 C   0  0  0  0  0  0  0  0  0  0  0  0
   -1.0323    0.7500    0.0000 C   0  0  0  0  0  0  0  0  0  0  0  0
    0.3943    1.2135    0.0000 C   0  0  0  0  0  0  0  0  0  0  0  0
   -0.2158    2.5838    0.0000 C   0  0  0  0  0  0  0  0  0  0  0  0
   -0.8259    3.9542    0.0000 C   0  0  0  0  0  0  0  0  0  0  0  0
   -0.9305    5.4505    0.0000 C   0  0  0  0  0  0  0  0  0  0  0  0
    0.4176    4.7930    0.0000 C   0  0  0  0  0  0  0  0  0  0  0  0
    1.2760    0.0000    0.0000 C   0  0  0  0  0  0  0  0  0  0  0  0
    2.3907    1.0037    0.0000 C   0  0  0  0  0  0  0  0  0  0  0  0
    0.3943   -1.2135    0.0000 C   0  0  0  0  0  0  0  0  0  0  0  0
   -1.0323   -0.7500    0.0000 C   0  0  0  0  0  0  0  0  0  0  0  0
   -2.3313   -1.5000    0.0000 C   0  0  0  0  0  0  0  0  0  0  0  0
   -9.1499   -8.3186    0.0000 H   0  0  0  0  0  0  0  0  0  0  0  0
   -9.6011   -5.7600    0.0000 H   0  0  0  0  0  0  0  0  0  0  0  0
   -6.1955   -7.7977    0.0000 H   0  0  0  0  0  0  0  0  0  0  0  0
   -8.0562   -4.7261    0.0000 H   0  0  0  0  0  0  0  0  0  0  0  0
   -5.2371   -5.7521    0.0000 H   0  0  0  0  0  0  0  0  0  0  0  0
   -7.5432   -3.3165    0.0000 H   0  0  0  0  0  0  0  0  0  0  0  0
   -4.7241   -4.3426    0.0000 H   0  0  0  0  0  0  0  0  0  0  0  0
   -6.5848   -1.2709    0.0000 H   0  0  0  0  0  0  0  0  0  0  0  0
   -3.3265   -3.4176    0.0000 H   0  0  0  0  0  0  0  0  0  0  0  0
   -5.1076   -0.4895    0.0000 H   0  0  0  0  0  0  0  0  0  0  0  0
   -5.1076    0.4895    0.0000 H   0  0  0  0  0  0  0  0  0  0  0  0
   -4.1434    2.1595    0.0000 H   0  0  0  0  0  0  0  0  0  0  0  0
   -3.2955    2.6491    0.0000 H   0  0  0  0  0  0  0  0  0  0  0  0
   -1.9819    2.2165    0.0000 H   0  0  0  0  0  0  0  0  0  0  0  0
   -1.1693    1.7246    0.0000 H   0  0  0  0  0  0  0  0  0  0  0  0
    1.5922    2.1163    0.0000 H   0  0  0  0  0  0  0  0  0  0  0  0
    1.2187    3.0224    0.0000 H   0  0  0  0  0  0  0  0  0  0  0  0
   -1.4124    2.3729    0.0000 H   0  0  0  0  0  0  0  0  0  0  0  0
   -2.2814    3.5913    0.0000 H   0  0  0  0  0  0  0  0  0  0  0  0
   -2.4223    5.6073    0.0000 H   0  0  0  0  0  0  0  0  0  0  0  0
   -0.5171    6.8924    0.0000 H   0  0  0  0  0  0  0  0  0  0  0  0
    1.2993    6.0065    0.0000 H   0  0  0  0  0  0  0  0  0  0  0  0
    1.5834    3.8490    0.0000 H   0  0  0  0  0  0  0  0  0  0  0  0
    2.3907   -1.0037    0.0000 H   0  0  0  0  0  0  0  0  0  0  0  0
    3.5054    2.0074    0.0000 H   0  0  0  0  0  0  0  0  0  0  0  0
    3.3944   -0.1110    0.0000 H   0  0  0  0  0  0  0  0  0  0  0  0
    1.5304    2.2324    0.0000 H   0  0  0  0  0  0  0  0  0  0  0  0
    1.6933   -1.9635    0.0000 H   0  0  0  0  0  0  0  0  0  0  0  0
   -0.0442   -2.6480    0.0000 H   0  0  0  0  0  0  0  0  0  0  0  0
   -0.8755   -2.2418    0.0000 H   0  0  0  0  0  0  0  0  0  0  0  0
   -1.5144   -2.7580    0.0000 H   0  0  0  0  0  0  0  0  0  0  0  0
   -3.1482   -2.7580    0.0000 H   0  0  0  0  0  0  0  0  0  0  0  0
  1  2  2  3
  2  3  1  0
  3  4  1  0
  4  5  1  0
  5  6  2  3
  6  7  1  0
  7  8  1  0
  8  9  1  0
  9 10  1  0
 10 11  1  0
 11 12  1  0
 12 13  1  0
 13 14  1  0
 14 15  1  0
 11 16  1  0
 16 17  1  0
 16 18  1  0
 18 19  1  0
 19 20  1  0
 20  7  1  0
 19 10  1  0
 15 13  1  0
  1 21  1  0
  1 22  1  0
  2 23  1  0
  3 24  1  0
  3 25  1  0
  4 26  1  0
  4 27  1  0
  5 28  1  0
  6 29  1  0
  7 30  1  6
  8 31  1  0
  8 32  1  0
  9 33  1  0
  9 34  1  0
 10 35  1  1
 11 36  1  6
 12 37  1  0
 12 38  1  0
 13 39  1  0
 14 40  1  0
 14 41  1  0
 15 42  1  0
 15 43  1  0
 16 44  1  6
 17 45  1  0
 17 46  1  0
 17 47  1  0
 18 48  1  0
 18 49  1  0
 19 50  1  1
 20 51  1  0
 20 52  1  0
M  END
$$$$
