
     RDKit          2D

105115  0  0  0  0  0  0  0  0999 V2000
   -5.7942    8.3315    0.0000 C   0  0  0  0  0  0  0  0  0  0  0  0
   -4.2967    8.2452    0.0000 C   0  0  0  0  0  0  0  0  0  0  0  0
   -4.7140    6.8044    0.0000 C   0  0  0  0  0  0  0  0  0  0  0  0
   -3.8478    5.5798    0.0000 C   0  0  0  0  0  0  0  0  0  0  0  0
   -2.3503    5.4936    0.0000 C   0  0  0  0  0  0  0  0  0  0  0  0
   -1.0385    4.7661    0.0000 C   0  0  0  0  0  0  0  0  0  0  0  0
   -1.3491    6.6106    0.0000 N   0  0  0  0  0  0  0  0  0  0  0  0
    0.0916    6.1933    0.0000 C   0  0  0  0  0  0  0  0  0  0  0  0
    1.5324    5.7759    0.0000 C   0  0  0  0  0  0  0  0  0  0  0  0
    2.7436    4.8910    0.0000 C   0  0  0  0  0  0  0  0  0  0  0  0
    1.3716    4.2846    0.0000 C   0  0  0  0  0  0  0  0  0  0  0  0
    1.7306    2.8282    0.0000 O   0  0  0  0  0  0  0  0  0  0  0  0
    0.6488    1.7891    0.0000 C   0  0  0  0  0  0  0  0  0  0  0  0
   -0.4330    0.7500    0.0000 C   0  0  0  0  0  0  0  0  0  0  0  0
    0.8660    0.0000    0.0000 C   0  0  0  0  0  0  0  0  0  0  0  0
   -0.4330   -0.7500    0.0000 C   0  0  0  0  0  0  0  0  0  0  0  0
   -1.1301   -2.0782    0.0000 C   0  0  0  0  0  0  0  0  0  0  0  0
   -2.3646   -2.9303    0.0000 C   0  0  0  0  0  0  0  0  0  0  0  0
   -3.8536   -3.1111    0.0000 C   0  0  0  0  0  0  0  0  0  0  0  0
   -5.2562   -2.5792    0.0000 C   0  0  0  0  0  0  0  0  0  0  0  0
   -5.2562   -4.0792    0.0000 C   0  0  0  0  0  0  0  0  0  0  0  0
   -3.9571   -4.8292    0.0000 C   0  0  0  0  0  0  0  0  0  0  0  0
   -5.2562   -5.5792    0.0000 C   0  0  0  0  0  0  0  0  0  0  0  0
   -6.5552   -6.3292    0.0000 C   0  0  0  0  0  0  0  0  0  0  0  0
   -7.8542   -5.5792    0.0000 C   0  0  0  0  0  0  0  0  0  0  0  0
   -6.5552   -4.8292    0.0000 C   0  0  0  0  0  0  0  0  0  0  0  0
   -6.2508   -1.4564    0.0000 C   0  0  0  0  0  0  0  0  0  0  0  0
   -6.6098    0.0000    0.0000 C   0  0  0  0  0  0  0  0  0  0  0  0
   -7.8443   -0.8521    0.0000 C   0  0  0  0  0  0  0  0  0  0  0  0
   -8.6964    0.3824    0.0000 C   0  0  0  0  0  0  0  0  0  0  0  0
   -9.5485    1.6169    0.0000 O   0  0  0  0  0  0  0  0  0  0  0  0
   -9.9309   -0.4697    0.0000 C   0  0  0  0  0  0  0  0  0  0  0  0
  -10.5739   -1.8249    0.0000 C   0  0  0  0  0  0  0  0  0  0  0  0
   -9.0788   -1.7042    0.0000 C   0  0  0  0  0  0  0  0  0  0  0  0
   -6.2508    1.4564    0.0000 C   0  0  0  0  0  0  0  0  0  0  0  0
   -5.2562    2.5792    0.0000 C   0  0  0  0  0  0  0  0  0  0  0  0
   -4.9680    4.0512    0.0000 C   0  0  0  0  0  0  0  0  0  0  0  0
   -3.4789    4.2320    0.0000 O   0  0  0  0  0  0  0  0  0  0  0  0
   -2.3646    2.9303    0.0000 C   0  0  0  0  0  0  0  0  0  0  0  0
   -3.8536    3.1111    0.0000 C   0  0  0  0  0  0  0  0  0  0  0  0
   -1.1301    2.0782    0.0000 C   0  0  0  0  0  0  0  0  0  0  0  0
   -0.7711    3.5346    0.0000 C   0  0  0  0  0  0  0  0  0  0  0  0
   -1.5983    8.0898    0.0000 C   0  0  0  0  0  0  0  0  0  0  0  0
   -2.9101    8.8172    0.0000 C   0  0  0  0  0  0  0  0  0  0  0  0
   -7.2917    8.4177    0.0000 H   0  0  0  0  0  0  0  0  0  0  0  0
   -5.7080    9.8290    0.0000 H   0  0  0  0  0  0  0  0  0  0  0  0
   -5.9367    7.5471    0.0000 H   0  0  0  0  0  0  0  0  0  0  0  0
   -4.7243    9.6830    0.0000 H   0  0  0  0  0  0  0  0  0  0  0  0
   -5.8315    6.0470    0.0000 H   0  0  0  0  0  0  0  0  0  0  0  0
   -5.5352    7.1364    0.0000 H   0  0  0  0  0  0  0  0  0  0  0  0
   -3.9640    4.0843    0.0000 H   0  0  0  0  0  0  0  0  0  0  0  0
   -5.2938    5.1811    0.0000 H   0  0  0  0  0  0  0  0  0  0  0  0
   -3.2563    4.2981    0.0000 H   0  0  0  0  0  0  0  0  0  0  0  0
    0.1749    3.8842    0.0000 H   0  0  0  0  0  0  0  0  0  0  0  0
   -0.0152    5.8629    0.0000 H   0  0  0  0  0  0  0  0  0  0  0  0
   -2.2967    3.9495    0.0000 H   0  0  0  0  0  0  0  0  0  0  0  0
    0.6815    7.5724    0.0000 H   0  0  0  0  0  0  0  0  0  0  0  0
    0.0353    4.6943    0.0000 H   0  0  0  0  0  0  0  0  0  0  0  0
    2.1936    7.1224    0.0000 H   0  0  0  0  0  0  0  0  0  0  0  0
    3.8254    5.9301    0.0000 H   0  0  0  0  0  0  0  0  0  0  0  0
    3.5790    3.6452    0.0000 H   0  0  0  0  0  0  0  0  0  0  0  0
   -0.1016    4.0023    0.0000 H   0  0  0  0  0  0  0  0  0  0  0  0
    1.8120    0.8420    0.0000 H   0  0  0  0  0  0  0  0  0  0  0  0
   -0.0976    3.0902    0.0000 H   0  0  0  0  0  0  0  0  0  0  0  0
    1.9631    1.0230    0.0000 H   0  0  0  0  0  0  0  0  0  0  0  0
    1.8302   -1.1491    0.0000 H   0  0  0  0  0  0  0  0  0  0  0  0
    0.7674   -1.6495    0.0000 H   0  0  0  0  0  0  0  0  0  0  0  0
    0.3258   -2.4392    0.0000 H   0  0  0  0  0  0  0  0  0  0  0  0
   -0.5963   -3.4800    0.0000 H   0  0  0  0  0  0  0  0  0  0  0  0
   -1.2432   -3.9265    0.0000 H   0  0  0  0  0  0  0  0  0  0  0  0
   -2.3605   -4.4303    0.0000 H   0  0  0  0  0  0  0  0  0  0  0  0
   -3.1566   -4.4393    0.0000 H   0  0  0  0  0  0  0  0  0  0  0  0
   -4.5471   -4.4412    0.0000 H   0  0  0  0  0  0  0  0  0  0  0  0
   -6.5834   -3.2781    0.0000 H   0  0  0  0  0  0  0  0  0  0  0  0
   -2.7435   -3.9476    0.0000 H   0  0  0  0  0  0  0  0  0  0  0  0
   -2.9929   -5.9782    0.0000 H   0  0  0  0  0  0  0  0  0  0  0  0
   -6.5552   -7.8292    0.0000 H   0  0  0  0  0  0  0  0  0  0  0  0
   -8.8184   -6.7282    0.0000 H   0  0  0  0  0  0  0  0  0  0  0  0
   -8.8184   -4.4301    0.0000 H   0  0  0  0  0  0  0  0  0  0  0  0
   -6.9479   -2.7846    0.0000 H   0  0  0  0  0  0  0  0  0  0  0  0
   -7.7394   -1.6413    0.0000 H   0  0  0  0  0  0  0  0  0  0  0  0
   -7.8443    0.8521    0.0000 H   0  0  0  0  0  0  0  0  0  0  0  0
   -7.1490   -2.1812    0.0000 H   0  0  0  0  0  0  0  0  0  0  0  0
   -7.7048    1.5079    0.0000 H   0  0  0  0  0  0  0  0  0  0  0  0
  -11.0436    1.4962    0.0000 H   0  0  0  0  0  0  0  0  0  0  0  0
  -11.0734    0.5022    0.0000 H   0  0  0  0  0  0  0  0  0  0  0  0
  -12.0202   -1.4269    0.0000 H   0  0  0  0  0  0  0  0  0  0  0  0
  -10.7147   -3.3183    0.0000 H   0  0  0  0  0  0  0  0  0  0  0  0
   -8.5752   -3.1171    0.0000 H   0  0  0  0  0  0  0  0  0  0  0  0
   -7.7394    1.6413    0.0000 H   0  0  0  0  0  0  0  0  0  0  0  0
   -6.9479    2.7846    0.0000 H   0  0  0  0  0  0  0  0  0  0  0  0
   -6.2524    3.7006    0.0000 H   0  0  0  0  0  0  0  0  0  0  0  0
   -6.4348    4.3651    0.0000 H   0  0  0  0  0  0  0  0  0  0  0  0
   -5.3543    5.5006    0.0000 H   0  0  0  0  0  0  0  0  0  0  0  0
   -2.1878    4.4198    0.0000 H   0  0  0  0  0  0  0  0  0  0  0  0
   -4.7040    4.3467    0.0000 H   0  0  0  0  0  0  0  0  0  0  0  0
   -3.4987    4.5685    0.0000 H   0  0  0  0  0  0  0  0  0  0  0  0
    0.2710    2.6139    0.0000 H   0  0  0  0  0  0  0  0  0  0  0  0
   -0.0704    4.8609    0.0000 H   0  0  0  0  0  0  0  0  0  0  0  0
    0.6853    3.1756    0.0000 H   0  0  0  0  0  0  0  0  0  0  0  0
   -2.2604    3.7134    0.0000 H   0  0  0  0  0  0  0  0  0  0  0  0
   -1.0084    9.4689    0.0000 H   0  0  0  0  0  0  0  0  0  0  0  0
   -0.1014    8.1867    0.0000 H   0  0  0  0  0  0  0  0  0  0  0  0
   -3.6206   10.1383    0.0000 H   0  0  0  0  0  0  0  0  0  0  0  0
   -2.0526   10.0480    0.0000 H   0  0  0  0  0  0  0  0  0  0  0  0
  1  2  1  0
  2  3  1  0
  3  4  1  0
  4  5  1  0
  5  6  1  0
  5  7  1  0
  7  8  1  0
  8  9  1  0
  9 10  1  0
 10 11  1  0
 11 12  1  0
 12 13  1  0
 13 14  1  0
 14 15  1  0
 15 16  1  0
 16 17  1  0
 17 18  1  0
 18 19  1  0
 19 20  1  0
 20 21  1  0
 21 22  1  0
 22 23  1  0
 23 24  1  0
 24 25  1  0
 25 26  1  0
 20 27  1  0
 27 28  1  0
 28 29  1  0
 29 30  1  0
 30 31  1  0
 30 32  1  0
 32 33  1  0
 33 34  1  0
 28 35  1  0
 35 36  1  0
 36 37  1  0
 37 38  1  0
 38 39  1  0
 39 40  1  0
 39 41  1  0
 41 42  1  0
  7 43  1  0
 43 44  1  0
 44  2  1  0
 11  9  1  0
 16 14  1  0
 23 21  1  0
 26 24  1  0
 34 29  1  0
 40 36  1  0
 41 14  1  0
 26 21  1  0
 34 32  1  0
 26 23  1  0
  1 45  1  0
  1 46  1  0
  1 47  1  0
  2 48  1  0
  3 49  1  0
  3 50  1  0
  4 51  1  0
  4 52  1  0
  5 53  1  0
  6 54  1  0
  6 55  1  0
  6 56  1  0
  8 57  1  0
  8 58  1  0
  9 59  1  0
 10 60  1  0
 10 61  1  0
 11 62  1  0
 13 63  1  0
 13 64  1  0
 15 65  1  0
 15 66  1  0
 16 67  1  0
 17 68  1  0
 17 69  1  0
 18 70  1  0
 18 71  1  0
 19 72  1  0
 19 73  1  0
 20 74  1  0
 22 75  1  0
 22 76  1  0
 24 77  1  0
 25 78  1  0
 25 79  1  0
 27 80  1  0
 27 81  1  0
 28 82  1  0
 29 83  1  0
 30 84  1  0
 31 85  1  0
 32 86  1  0
 33 87  1  0
 33 88  1  0
 34 89  1  0
 35 90  1  0
 35 91  1  0
 36 92  1  0
 37 93  1  0
 37 94  1  0
 39 95  1  0
 40 96  1  0
 40 97  1  0
 41 98  1  0
 42 99  1  0
 42100  1  0
 42101  1  0
 43102  1  0
 43103  1  0
 44104  1  0
 44105  1  0
M  END
$$$$
