
     RDKit          2D

 61 63  0  0  0  0  0  0  0  0999 V2000
    1.7331   -4.6309    0.0000 C   0  0  0  0  0  0  0  0  0  0  0  0
    2.1213   -3.1820    0.0000 C   0  0  0  0  0  0  0  0  0  0  0  0
    1.0607   -2.1213    0.0000 C   0  0  0  0  0  0  0  0  0  0  0  0
   -0.0000   -1.0607    0.0000 C   0  0  0  0  0  0  0  0  0  0  0  0
   -1.0607   -2.1213    0.0000 C   0  0  0  0  0  0  0  0  0  0  0  0
   -2.1213   -1.0607    0.0000 C   0  0  0  0  0  0  0  0  0  0  0  0
   -3.1820   -0.0000    0.0000 C   0  0  0  0  0  0  0  0  0  0  0  0
   -4.2426    1.0607    0.0000 C   0  0  0  0  0  0  0  0  0  0  0  0
   -5.3033    2.1213    0.0000 C   0  0  0  0  0  0  0  0  0  0  0  0
   -6.3640    3.1820    0.0000 C   0  0  0  0  0  0  0  0  0  0  0  0
   -1.0607    0.0000    0.0000 C   0  0  0  0  0  0  0  0  0  0  0  0
    3.5702   -2.7938    0.0000 C   0  0  0  0  0  0  0  0  0  0  0  0
    5.0191   -2.4055    0.0000 C   0  0  0  0  0  0  0  0  0  0  0  0
    5.4073   -3.8544    0.0000 C   0  0  0  0  0  0  0  0  0  0  0  0
    6.8562   -3.4662    0.0000 C   0  0  0  0  0  0  0  0  0  0  0  0
    6.4680   -2.0173    0.0000 C   0  0  0  0  0  0  0  0  0  0  0  0
    6.0798   -0.5684    0.0000 N   0  0  0  0  0  0  0  0  0  0  0  0
    7.1404    0.4923    0.0000 C   0  0  0  0  0  0  0  0  0  0  0  0
    8.2011    1.5529    0.0000 N   0  0  0  0  0  0  0  0  0  0  0  0
    9.6500    1.1647    0.0000 C   0  0  0  0  0  0  0  0  0  0  0  0
   11.1443    1.2954    0.0000 C   0  0  0  0  0  0  0  0  0  0  0  0
   10.2839    2.5241    0.0000 C   0  0  0  0  0  0  0  0  0  0  0  0
   11.3446    3.5848    0.0000 C   0  0  0  0  0  0  0  0  0  0  0  0
    2.7938   -5.6915    0.0000 H   0  0  0  0  0  0  0  0  0  0  0  0
    0.2842   -5.0191    0.0000 H   0  0  0  0  0  0  0  0  0  0  0  0
    2.1213   -1.0607    0.0000 H   0  0  0  0  0  0  0  0  0  0  0  0
    0.5154   -2.8193    0.0000 H   0  0  0  0  0  0  0  0  0  0  0  0
    1.0607   -0.0000    0.0000 H   0  0  0  0  0  0  0  0  0  0  0  0
   -2.1213   -3.1820    0.0000 H   0  0  0  0  0  0  0  0  0  0  0  0
   -0.5154   -2.8193    0.0000 H   0  0  0  0  0  0  0  0  0  0  0  0
   -3.1820   -2.1213    0.0000 H   0  0  0  0  0  0  0  0  0  0  0  0
   -4.2426   -1.0607    0.0000 H   0  0  0  0  0  0  0  0  0  0  0  0
   -2.6367    0.6980    0.0000 H   0  0  0  0  0  0  0  0  0  0  0  0
   -5.3033    0.0000    0.0000 H   0  0  0  0  0  0  0  0  0  0  0  0
   -3.1820    2.1213    0.0000 H   0  0  0  0  0  0  0  0  0  0  0  0
   -4.2426    3.1820    0.0000 H   0  0  0  0  0  0  0  0  0  0  0  0
   -6.3640    1.0607    0.0000 H   0  0  0  0  0  0  0  0  0  0  0  0
   -7.4246    4.2426    0.0000 H   0  0  0  0  0  0  0  0  0  0  0  0
   -7.4246    2.1213    0.0000 H   0  0  0  0  0  0  0  0  0  0  0  0
   -5.3033    4.2426    0.0000 H   0  0  0  0  0  0  0  0  0  0  0  0
    0.0000    1.0607    0.0000 H   0  0  0  0  0  0  0  0  0  0  0  0
   -1.6060    0.6980    0.0000 H   0  0  0  0  0  0  0  0  0  0  0  0
    3.6935   -3.6709    0.0000 H   0  0  0  0  0  0  0  0  0  0  0  0
    3.1820   -1.3449    0.0000 H   0  0  0  0  0  0  0  0  0  0  0  0
    4.4572   -1.0148    0.0000 H   0  0  0  0  0  0  0  0  0  0  0  0
    5.7956   -5.3033    0.0000 H   0  0  0  0  0  0  0  0  0  0  0  0
    4.5861   -4.1862    0.0000 H   0  0  0  0  0  0  0  0  0  0  0  0
    8.3051   -3.0780    0.0000 H   0  0  0  0  0  0  0  0  0  0  0  0
    7.2444   -4.9151    0.0000 H   0  0  0  0  0  0  0  0  0  0  0  0
    7.9169   -1.6291    0.0000 H   0  0  0  0  0  0  0  0  0  0  0  0
    4.6890   -0.0065    0.0000 H   0  0  0  0  0  0  0  0  0  0  0  0
    6.0798    1.5529    0.0000 H   0  0  0  0  0  0  0  0  0  0  0  0
    8.2011   -0.5684    0.0000 H   0  0  0  0  0  0  0  0  0  0  0  0
    7.8128    3.0018    0.0000 H   0  0  0  0  0  0  0  0  0  0  0  0
    9.5192   -0.3296    0.0000 H   0  0  0  0  0  0  0  0  0  0  0  0
   11.5325   -0.1535    0.0000 H   0  0  0  0  0  0  0  0  0  0  0  0
   12.5709    1.7589    0.0000 H   0  0  0  0  0  0  0  0  0  0  0  0
    9.0552    3.3845    0.0000 H   0  0  0  0  0  0  0  0  0  0  0  0
   12.4052    4.6455    0.0000 H   0  0  0  0  0  0  0  0  0  0  0  0
   10.2839    4.6455    0.0000 H   0  0  0  0  0  0  0  0  0  0  0  0
   12.5266    2.6613    0.0000 H   0  0  0  0  0  0  0  0  0  0  0  0
  1  2  2  3
  2  3  1  0
  3  4  1  0
  4  5  1  0
  5  6  1  0
  6  7  1  0
  7  8  1  0
  8  9  1  0
  9 10  1  0
  6 11  1  0
  2 12  1  0
 12 13  1  0
 13 14  1  0
 14 15  1  0
 15 16  1  0
 16 17  1  0
 17 18  1  0
 18 19  1  0
 19 20  1  0
 20 21  1  0
 21 22  1  0
 22 23  1  0
 11  4  1  0
 16 13  1  0
 22 20  1  0
  1 24  1  0
  1 25  1  0
  3 26  1  0
  3 27  1  0
  4 28  1  0
  5 29  1  0
  5 30  1  0
  6 31  1  0
  7 32  1  0
  7 33  1  0
  8 34  1  0
  8 35  1  0
  9 36  1  0
  9 37  1  0
 10 38  1  0
 10 39  1  0
 10 40  1  0
 11 41  1  0
 11 42  1  0
 12 43  1  0
 12 44  1  0
 13 45  1  0
 14 46  1  0
 14 47  1  0
 15 48  1  0
 15 49  1  0
 16 50  1  0
 17 51  1  0
 18 52  1  0
 18 53  1  0
 19 54  1  0
 20 55  1  0
 21 56  1  0
 21 57  1  0
 22 58  1  0
 23 59  1  0
 23 60  1  0
 23 61  1  0
M  END
$$$$
