
     RDKit          2D

117121  0  0  0  0  0  0  0  0999 V2000
   -9.4867   12.1860    0.0000 C   0  0  0  0  0  0  0  0  0  0  0  0
   -8.4260   11.1253    0.0000 C   0  0  0  0  0  0  0  0  0  0  0  0
   -7.3654   10.0647    0.0000 C   0  0  0  0  0  0  0  0  0  0  0  0
   -6.3047    9.0040    0.0000 C   0  0  0  0  0  0  0  0  0  0  0  0
   -5.2441    7.9433    0.0000 C   0  0  0  0  0  0  0  0  0  0  0  0
   -4.1834    6.8827    0.0000 C   0  0  0  0  0  0  0  0  0  0  0  0
   -3.1227    5.8220    0.0000 C   0  0  0  0  0  0  0  0  0  0  0  0
   -2.0621    4.7614    0.0000 O   0  0  0  0  0  0  0  0  0  0  0  0
   -2.4503    3.3125    0.0000 C   0  0  0  0  0  0  0  0  0  0  0  0
   -2.8385    1.8636    0.0000 C   0  0  0  0  0  0  0  0  0  0  0  0
   -3.2268    0.4147    0.0000 C   0  0  0  0  0  0  0  0  0  0  0  0
   -3.6150   -1.0342    0.0000 C   0  0  0  0  0  0  0  0  0  0  0  0
   -4.0032   -2.4831    0.0000 C   0  0  0  0  0  0  0  0  0  0  0  0
   -4.3915   -3.9320    0.0000 C   0  0  0  0  0  0  0  0  0  0  0  0
   -4.7797   -5.3809    0.0000 C   0  0  0  0  0  0  0  0  0  0  0  0
   -5.1679   -6.8298    0.0000 C   0  0  0  0  0  0  0  0  0  0  0  0
   -5.5561   -8.2786    0.0000 C   0  0  0  0  0  0  0  0  0  0  0  0
   -6.6168   -6.4415    0.0000 C   0  0  0  0  0  0  0  0  0  0  0  0
   -8.0657   -6.0533    0.0000 C   0  0  0  0  0  0  0  0  0  0  0  0
   -7.6775   -4.6044    0.0000 O   0  0  0  0  0  0  0  0  0  0  0  0
   -9.5146   -5.6651    0.0000 C   0  0  0  0  0  0  0  0  0  0  0  0
  -10.5752   -6.7257    0.0000 O   0  0  0  0  0  0  0  0  0  0  0  0
   -9.9028   -4.2162    0.0000 C   0  0  0  0  0  0  0  0  0  0  0  0
  -10.2910   -2.7673    0.0000 N   0  0  0  0  0  0  0  0  0  0  0  0
   -9.2304   -1.7066    0.0000 C   0  0  0  0  0  0  0  0  0  0  0  0
   -8.1697   -0.6460    0.0000 C   0  0  0  0  0  0  0  0  0  0  0  0
  -11.7399   -2.3791    0.0000 C   0  0  0  0  0  0  0  0  0  0  0  0
  -11.3517   -0.9302    0.0000 C   0  0  0  0  0  0  0  0  0  0  0  0
  -12.8006   -0.5419    0.0000 C   0  0  0  0  0  0  0  0  0  0  0  0
  -14.2495   -0.1537    0.0000 C   0  0  0  0  0  0  0  0  0  0  0  0
  -13.1888   -1.9908    0.0000 C   0  0  0  0  0  0  0  0  0  0  0  0
   -2.9426   -4.3202    0.0000 N   0  0  0  0  0  0  0  0  0  0  0  0
   -2.5543   -5.7691    0.0000 C   0  0  0  0  0  0  0  0  0  0  0  0
   -2.1661   -7.2180    0.0000 C   0  0  0  0  0  0  0  0  0  0  0  0
   -0.8671   -6.4680    0.0000 C   0  0  0  0  0  0  0  0  0  0  0  0
    0.5818   -6.8562    0.0000 C   0  0  0  0  0  0  0  0  0  0  0  0
    1.3318   -8.1553    0.0000 C   0  0  0  0  0  0  0  0  0  0  0  0
    0.9436   -9.6041    0.0000 C   0  0  0  0  0  0  0  0  0  0  0  0
   -0.3554  -10.3541    0.0000 C   0  0  0  0  0  0  0  0  0  0  0  0
   -0.7437  -11.8030    0.0000 C   0  0  0  0  0  0  0  0  0  0  0  0
   -2.1926  -11.4148    0.0000 C   0  0  0  0  0  0  0  0  0  0  0  0
   -1.8043   -9.9659    0.0000 C   0  0  0  0  0  0  0  0  0  0  0  0
   -3.3043   -9.9659    0.0000 C   0  0  0  0  0  0  0  0  0  0  0  0
   -1.2686   -9.1641    0.0000 C   0  0  0  0  0  0  0  0  0  0  0  0
   -2.5543   -8.6669    0.0000 C   0  0  0  0  0  0  0  0  0  0  0  0
  -10.5474   13.2466    0.0000 H   0  0  0  0  0  0  0  0  0  0  0  0
   -8.4260   13.2466    0.0000 H   0  0  0  0  0  0  0  0  0  0  0  0
  -10.5474   11.1253    0.0000 H   0  0  0  0  0  0  0  0  0  0  0  0
   -7.3654   12.1860    0.0000 H   0  0  0  0  0  0  0  0  0  0  0  0
   -9.4867   10.0647    0.0000 H   0  0  0  0  0  0  0  0  0  0  0  0
   -8.4260    9.0040    0.0000 H   0  0  0  0  0  0  0  0  0  0  0  0
   -6.3047   11.1253    0.0000 H   0  0  0  0  0  0  0  0  0  0  0  0
   -5.2441   10.0647    0.0000 H   0  0  0  0  0  0  0  0  0  0  0  0
   -7.3654    7.9433    0.0000 H   0  0  0  0  0  0  0  0  0  0  0  0
   -6.3047    6.8827    0.0000 H   0  0  0  0  0  0  0  0  0  0  0  0
   -4.1834    9.0040    0.0000 H   0  0  0  0  0  0  0  0  0  0  0  0
   -5.2441    5.8220    0.0000 H   0  0  0  0  0  0  0  0  0  0  0  0
   -3.1227    7.9433    0.0000 H   0  0  0  0  0  0  0  0  0  0  0  0
   -4.1834    4.7614    0.0000 H   0  0  0  0  0  0  0  0  0  0  0  0
   -2.0621    6.8827    0.0000 H   0  0  0  0  0  0  0  0  0  0  0  0
   -1.0014    2.9242    0.0000 H   0  0  0  0  0  0  0  0  0  0  0  0
   -3.8992    3.7007    0.0000 H   0  0  0  0  0  0  0  0  0  0  0  0
   -4.2874    2.2518    0.0000 H   0  0  0  0  0  0  0  0  0  0  0  0
   -1.3896    1.4753    0.0000 H   0  0  0  0  0  0  0  0  0  0  0  0
   -4.6757    0.8029    0.0000 H   0  0  0  0  0  0  0  0  0  0  0  0
   -1.7779    0.0265    0.0000 H   0  0  0  0  0  0  0  0  0  0  0  0
   -5.0639   -0.6460    0.0000 H   0  0  0  0  0  0  0  0  0  0  0  0
   -2.1661   -1.4224    0.0000 H   0  0  0  0  0  0  0  0  0  0  0  0
   -5.4521   -2.0949    0.0000 H   0  0  0  0  0  0  0  0  0  0  0  0
   -2.5178   -2.6918    0.0000 H   0  0  0  0  0  0  0  0  0  0  0  0
   -5.8403   -3.5438    0.0000 H   0  0  0  0  0  0  0  0  0  0  0  0
   -5.6009   -5.0490    0.0000 H   0  0  0  0  0  0  0  0  0  0  0  0
   -3.5662   -6.2626    0.0000 H   0  0  0  0  0  0  0  0  0  0  0  0
   -3.8560   -7.5570    0.0000 H   0  0  0  0  0  0  0  0  0  0  0  0
   -5.9444   -9.7275    0.0000 H   0  0  0  0  0  0  0  0  0  0  0  0
   -4.0707   -8.4874    0.0000 H   0  0  0  0  0  0  0  0  0  0  0  0
   -6.4333   -8.1554    0.0000 H   0  0  0  0  0  0  0  0  0  0  0  0
   -6.9486   -7.2628    0.0000 H   0  0  0  0  0  0  0  0  0  0  0  0
   -6.4935   -5.5644    0.0000 H   0  0  0  0  0  0  0  0  0  0  0  0
   -8.4539   -7.5022    0.0000 H   0  0  0  0  0  0  0  0  0  0  0  0
   -8.2228   -3.9064    0.0000 H   0  0  0  0  0  0  0  0  0  0  0  0
  -11.3517   -4.6044    0.0000 H   0  0  0  0  0  0  0  0  0  0  0  0
   -9.0816   -3.8844    0.0000 H   0  0  0  0  0  0  0  0  0  0  0  0
   -8.1697   -2.7673    0.0000 H   0  0  0  0  0  0  0  0  0  0  0  0
  -10.1538   -0.5246    0.0000 H   0  0  0  0  0  0  0  0  0  0  0  0
   -7.1091    0.4147    0.0000 H   0  0  0  0  0  0  0  0  0  0  0  0
   -9.2304    0.4147    0.0000 H   0  0  0  0  0  0  0  0  0  0  0  0
   -7.1091   -1.7066    0.0000 H   0  0  0  0  0  0  0  0  0  0  0  0
  -12.1281   -3.8280    0.0000 H   0  0  0  0  0  0  0  0  0  0  0  0
  -10.9635    0.5187    0.0000 H   0  0  0  0  0  0  0  0  0  0  0  0
   -9.8599   -0.7733    0.0000 H   0  0  0  0  0  0  0  0  0  0  0  0
  -12.4124    0.9069    0.0000 H   0  0  0  0  0  0  0  0  0  0  0  0
  -15.6984    0.2345    0.0000 H   0  0  0  0  0  0  0  0  0  0  0  0
  -13.8612    1.2952    0.0000 H   0  0  0  0  0  0  0  0  0  0  0  0
  -14.8114   -1.5445    0.0000 H   0  0  0  0  0  0  0  0  0  0  0  0
  -13.5770   -3.4397    0.0000 H   0  0  0  0  0  0  0  0  0  0  0  0
  -14.6742   -1.7821    0.0000 H   0  0  0  0  0  0  0  0  0  0  0  0
   -1.7605   -3.3967    0.0000 H   0  0  0  0  0  0  0  0  0  0  0  0
   -3.9451   -6.3310    0.0000 H   0  0  0  0  0  0  0  0  0  0  0  0
   -1.1636   -5.2072    0.0000 H   0  0  0  0  0  0  0  0  0  0  0  0
   -3.6549   -7.4008    0.0000 H   0  0  0  0  0  0  0  0  0  0  0  0
   -0.2810   -5.0872    0.0000 H   0  0  0  0  0  0  0  0  0  0  0  0
   -1.4771   -5.0976    0.0000 H   0  0  0  0  0  0  0  0  0  0  0  0
    1.9726   -6.2943    0.0000 H   0  0  0  0  0  0  0  0  0  0  0  0
    0.7647   -5.3674    0.0000 H   0  0  0  0  0  0  0  0  0  0  0  0
    2.7126   -8.7413    0.0000 H   0  0  0  0  0  0  0  0  0  0  0  0
    2.5139   -7.2318    0.0000 H   0  0  0  0  0  0  0  0  0  0  0  0
    1.3318  -11.0530    0.0000 H   0  0  0  0  0  0  0  0  0  0  0  0
    2.4324   -9.7870    0.0000 H   0  0  0  0  0  0  0  0  0  0  0  0
   -1.1319  -13.2519    0.0000 H   0  0  0  0  0  0  0  0  0  0  0  0
    0.7052  -12.1913    0.0000 H   0  0  0  0  0  0  0  0  0  0  0  0
   -3.6415  -11.0266    0.0000 H   0  0  0  0  0  0  0  0  0  0  0  0
   -2.5808  -12.8637    0.0000 H   0  0  0  0  0  0  0  0  0  0  0  0
   -4.6034  -10.7159    0.0000 H   0  0  0  0  0  0  0  0  0  0  0  0
   -0.0786   -8.2510    0.0000 H   0  0  0  0  0  0  0  0  0  0  0  0
   -1.5160   -7.6847    0.0000 H   0  0  0  0  0  0  0  0  0  0  0  0
   -3.9402   -8.0929    0.0000 H   0  0  0  0  0  0  0  0  0  0  0  0
  1  2  1  0
  2  3  1  0
  3  4  1  0
  4  5  1  0
  5  6  1  0
  6  7  1  0
  7  8  1  0
  8  9  1  0
  9 10  1  0
 10 11  1  0
 11 12  1  0
 12 13  1  0
 13 14  1  0
 14 15  1  0
 15 16  1  0
 16 17  1  0
 16 18  1  0
 18 19  1  0
 19 20  1  0
 19 21  1  0
 21 22  2  0
 21 23  1  0
 23 24  1  0
 24 25  1  0
 25 26  1  0
 24 27  1  0
 27 28  1  0
 28 29  1  0
 29 30  1  0
 29 31  1  0
 14 32  1  0
 32 33  1  0
 33 34  1  0
 34 35  1  0
 35 36  1  0
 36 37  1  0
 37 38  1  0
 38 39  1  0
 39 40  1  0
 40 41  1  0
 41 42  1  0
 42 43  1  0
 43 44  1  0
 43 45  1  0
 31 27  1  0
 45 34  1  0
 42 39  1  0
 44 39  1  0
 45 42  1  0
  1 46  1  0
  1 47  1  0
  1 48  1  0
  2 49  1  0
  2 50  1  0
  3 51  1  0
  3 52  1  0
  4 53  1  0
  4 54  1  0
  5 55  1  0
  5 56  1  0
  6 57  1  0
  6 58  1  0
  7 59  1  0
  7 60  1  0
  9 61  1  0
  9 62  1  0
 10 63  1  0
 10 64  1  0
 11 65  1  0
 11 66  1  0
 12 67  1  0
 12 68  1  0
 13 69  1  0
 13 70  1  0
 14 71  1  0
 15 72  1  0
 15 73  1  0
 16 74  1  0
 17 75  1  0
 17 76  1  0
 17 77  1  0
 18 78  1  0
 18 79  1  0
 19 80  1  0
 20 81  1  0
 23 82  1  0
 23 83  1  0
 25 84  1  0
 25 85  1  0
 26 86  1  0
 26 87  1  0
 26 88  1  0
 27 89  1  0
 28 90  1  0
 28 91  1  0
 29 92  1  0
 30 93  1  0
 30 94  1  0
 30 95  1  0
 31 96  1  0
 31 97  1  0
 32 98  1  0
 33 99  1  0
 33100  1  0
 34101  1  0
 35102  1  0
 35103  1  0
 36104  1  0
 36105  1  0
 37106  1  0
 37107  1  0
 38108  1  0
 38109  1  0
 40110  1  0
 40111  1  0
 41112  1  0
 41113  1  0
 43114  1  0
 44115  1  0
 44116  1  0
 45117  1  0
M  END
$$$$
