
     RDKit          2D

 31 32  0  0  0  0  0  0  0  0999 V2000
   -4.2213    3.1086    0.0000 C   0  0  0  0  0  0  0  0  0  0  0  0
   -2.7255    3.2207    0.0000 C   0  0  0  0  0  0  0  0  0  0  0  0
   -2.9491    1.7375    0.0000 C   0  0  0  0  0  0  0  0  0  0  0  0
   -1.9288    0.6379    0.0000 O   0  0  0  0  0  0  0  0  0  0  0  0
   -0.4330    0.7500    0.0000 C   0  0  0  0  0  0  0  0  0  0  0  0
    0.4120    1.9894    0.0000 C   0  0  0  0  0  0  0  0  0  0  0  0
   -0.0302    3.4227    0.0000 C   0  0  0  0  0  0  0  0  0  0  0  0
   -1.4265    3.9707    0.0000 C   0  0  0  0  0  0  0  0  0  0  0  0
   -2.4467    5.0703    0.0000 C   0  0  0  0  0  0  0  0  0  0  0  0
   -3.4670    6.1699    0.0000 N   0  0  0  0  0  0  0  0  0  0  0  0
    0.8660    0.0000    0.0000 C   0  0  0  0  0  0  0  0  0  0  0  0
   -0.4330   -0.7500    0.0000 C   0  0  0  0  0  0  0  0  0  0  0  0
   -5.7171    2.9965    0.0000 H   0  0  0  0  0  0  0  0  0  0  0  0
   -4.2591    2.3124    0.0000 H   0  0  0  0  0  0  0  0  0  0  0  0
   -4.3334    4.6044    0.0000 H   0  0  0  0  0  0  0  0  0  0  0  0
   -3.3391    4.5895    0.0000 H   0  0  0  0  0  0  0  0  0  0  0  0
   -3.7941    0.4981    0.0000 H   0  0  0  0  0  0  0  0  0  0  0  0
   -3.7211    1.9361    0.0000 H   0  0  0  0  0  0  0  0  0  0  0  0
    1.7927    2.5754    0.0000 H   0  0  0  0  0  0  0  0  0  0  0  0
    1.5587    1.0223    0.0000 H   0  0  0  0  0  0  0  0  0  0  0  0
    0.3725    4.8677    0.0000 H   0  0  0  0  0  0  0  0  0  0  0  0
    1.4408    3.7163    0.0000 H   0  0  0  0  0  0  0  0  0  0  0  0
   -0.7389    5.3038    0.0000 H   0  0  0  0  0  0  0  0  0  0  0  0
   -1.3472    6.0906    0.0000 H   0  0  0  0  0  0  0  0  0  0  0  0
   -3.6625    4.1917    0.0000 H   0  0  0  0  0  0  0  0  0  0  0  0
   -3.0249    7.6032    0.0000 H   0  0  0  0  0  0  0  0  0  0  0  0
   -4.9294    5.8361    0.0000 H   0  0  0  0  0  0  0  0  0  0  0  0
    1.9631    1.0230    0.0000 H   0  0  0  0  0  0  0  0  0  0  0  0
    1.8302   -1.1491    0.0000 H   0  0  0  0  0  0  0  0  0  0  0  0
    0.0800   -2.1595    0.0000 H   0  0  0  0  0  0  0  0  0  0  0  0
   -1.9102   -1.0105    0.0000 H   0  0  0  0  0  0  0  0  0  0  0  0
  1  2  1  0
  2  3  1  0
  3  4  1  0
  4  5  1  0
  5  6  1  0
  6  7  1  0
  7  8  1  0
  8  9  1  0
  9 10  1  0
  5 11  1  0
 11 12  1  0
  8  2  1  0
 12  5  1  0
  1 13  1  0
  1 14  1  0
  1 15  1  0
  2 16  1  0
  3 17  1  0
  3 18  1  0
  6 19  1  0
  6 20  1  0
  7 21  1  0
  7 22  1  0
  8 23  1  0
  9 24  1  0
  9 25  1  0
 10 26  1  0
 10 27  1  0
 11 28  1  0
 11 29  1  0
 12 30  1  0
 12 31  1  0
M  END
$$$$
