
     RDKit          2D

 50 53  0  0  0  0  0  0  0  0999 V2000
    3.5796    3.7348    0.0000 C   0  0  0  0  0  0  0  0  0  0  0  0
    4.0431    2.3083    0.0000 C   0  0  0  0  0  0  0  0  0  0  0  0
    5.2566    1.4266    0.0000 C   0  0  0  0  0  0  0  0  0  0  0  0
    5.7201   -0.0000    0.0000 C   0  0  0  0  0  0  0  0  0  0  0  0
    5.2566   -1.4266    0.0000 C   0  0  0  0  0  0  0  0  0  0  0  0
    4.0431   -2.3083    0.0000 C   0  0  0  0  0  0  0  0  0  0  0  0
    2.5431   -2.3083    0.0000 C   0  0  0  0  0  0  0  0  0  0  0  0
    1.3296   -1.4266    0.0000 C   0  0  0  0  0  0  0  0  0  0  0  0
    0.8660   -2.8532    0.0000 C   0  0  0  0  0  0  0  0  0  0  0  0
    0.4025   -4.2798    0.0000 C   0  0  0  0  0  0  0  0  0  0  0  0
    1.7269   -4.9840    0.0000 C   0  0  0  0  0  0  0  0  0  0  0  0
   -0.5210   -5.4618    0.0000 C   0  0  0  0  0  0  0  0  0  0  0  0
   -1.0829   -4.0710    0.0000 O   0  0  0  0  0  0  0  0  0  0  0  0
    0.8660    0.0000    0.0000 C   0  0  0  0  0  0  0  0  0  0  0  0
    1.3296    1.4266    0.0000 O   0  0  0  0  0  0  0  0  0  0  0  0
    2.5431    2.3083    0.0000 C   0  0  0  0  0  0  0  0  0  0  0  0
   -0.4330    0.7500    0.0000 C   0  0  0  0  0  0  0  0  0  0  0  0
   -1.7321    0.0000    0.0000 C   0  0  0  0  0  0  0  0  0  0  0  0
   -2.6962    1.1491    0.0000 C   0  0  0  0  0  0  0  0  0  0  0  0
   -0.4330   -0.7500    0.0000 C   0  0  0  0  0  0  0  0  0  0  0  0
    3.1160    5.1614    0.0000 H   0  0  0  0  0  0  0  0  0  0  0  0
    4.8635    4.1520    0.0000 H   0  0  0  0  0  0  0  0  0  0  0  0
    2.1071    3.4487    0.0000 H   0  0  0  0  0  0  0  0  0  0  0  0
    5.0304    3.2290    0.0000 H   0  0  0  0  0  0  0  0  0  0  0  0
    5.8906    2.7860    0.0000 H   0  0  0  0  0  0  0  0  0  0  0  0
    6.7454    1.6094    0.0000 H   0  0  0  0  0  0  0  0  0  0  0  0
    7.0321    0.7272    0.0000 H   0  0  0  0  0  0  0  0  0  0  0  0
    7.0321   -0.7272    0.0000 H   0  0  0  0  0  0  0  0  0  0  0  0
    6.7454   -1.6094    0.0000 H   0  0  0  0  0  0  0  0  0  0  0  0
    5.8906   -2.7860    0.0000 H   0  0  0  0  0  0  0  0  0  0  0  0
    5.1401   -3.3313    0.0000 H   0  0  0  0  0  0  0  0  0  0  0  0
    3.8741   -3.1777    0.0000 H   0  0  0  0  0  0  0  0  0  0  0  0
    2.8800   -3.0307    0.0000 H   0  0  0  0  0  0  0  0  0  0  0  0
    1.5790   -3.4574    0.0000 H   0  0  0  0  0  0  0  0  0  0  0  0
    0.1953   -1.8621    0.0000 H   0  0  0  0  0  0  0  0  0  0  0  0
   -0.3267   -2.6214    0.0000 H   0  0  0  0  0  0  0  0  0  0  0  0
    2.1500   -3.2703    0.0000 H   0  0  0  0  0  0  0  0  0  0  0  0
    3.0513   -5.6882    0.0000 H   0  0  0  0  0  0  0  0  0  0  0  0
    1.1894   -6.3843    0.0000 H   0  0  0  0  0  0  0  0  0  0  0  0
    2.7307   -3.8693    0.0000 H   0  0  0  0  0  0  0  0  0  0  0  0
    0.3393   -6.6905    0.0000 H   0  0  0  0  0  0  0  0  0  0  0  0
   -1.7931   -6.2566    0.0000 H   0  0  0  0  0  0  0  0  0  0  0  0
    1.2311    3.0354    0.0000 H   0  0  0  0  0  0  0  0  0  0  0  0
    2.6476    3.8046    0.0000 H   0  0  0  0  0  0  0  0  0  0  0  0
   -0.4330    2.2500    0.0000 H   0  0  0  0  0  0  0  0  0  0  0  0
   -2.6962   -1.1491    0.0000 H   0  0  0  0  0  0  0  0  0  0  0  0
   -3.6604    2.2981    0.0000 H   0  0  0  0  0  0  0  0  0  0  0  0
   -3.8453    0.1849    0.0000 H   0  0  0  0  0  0  0  0  0  0  0  0
   -1.5472    2.1132    0.0000 H   0  0  0  0  0  0  0  0  0  0  0  0
   -0.7960   -2.2054    0.0000 H   0  0  0  0  0  0  0  0  0  0  0  0
  1  2  1  0
  2  3  1  0
  3  4  1  0
  4  5  1  0
  5  6  1  0
  6  7  1  0
  7  8  1  0
  8  9  1  0
  9 10  1  0
 10 11  1  0
 10 12  1  0
 12 13  1  0
  8 14  1  0
 14 15  1  0
 15 16  1  0
 14 17  1  0
 17 18  1  0
 18 19  1  0
 18 20  1  0
 16  2  1  0
 20 17  1  0
 13 10  1  0
 20 14  1  0
  1 21  1  0
  1 22  1  0
  1 23  1  0
  2 24  1  0
  3 25  1  0
  3 26  1  0
  4 27  1  0
  4 28  1  0
  5 29  1  0
  5 30  1  0
  6 31  1  0
  6 32  1  0
  7 33  1  0
  7 34  1  0
  8 35  1  0
  9 36  1  0
  9 37  1  0
 11 38  1  0
 11 39  1  0
 11 40  1  0
 12 41  1  0
 12 42  1  0
 16 43  1  0
 16 44  1  0
 17 45  1  0
 18 46  1  0
 19 47  1  0
 19 48  1  0
 19 49  1  0
 20 50  1  0
M  END
$$$$
