
     RDKit          2D

 27 28  0  0  0  0  0  0  0  0999 V2000
    2.4537    0.4974    0.0000 O   0  0  0  0  0  0  0  0  0  0  0  0
    1.0442    1.0105    0.0000 C   0  0  0  0  0  0  0  0  0  0  0  0
   -0.4330    0.7500    0.0000 C   0  0  0  0  0  0  0  0  0  0  0  0
   -1.9102    1.0105    0.0000 C   0  0  0  0  0  0  0  0  0  0  0  0
   -3.3874    1.2709    0.0000 C   0  0  0  0  0  0  0  0  0  0  0  0
   -4.3516    0.1219    0.0000 C   0  0  0  0  0  0  0  0  0  0  0  0
   -5.8288    0.3824    0.0000 C   0  0  0  0  0  0  0  0  0  0  0  0
   -7.3060    0.1219    0.0000 C   0  0  0  0  0  0  0  0  0  0  0  0
   -6.3419   -1.0272    0.0000 C   0  0  0  0  0  0  0  0  0  0  0  0
    0.0800    2.1595    0.0000 N   0  0  0  0  0  0  0  0  0  0  0  0
   -0.1805    3.6368    0.0000 C   0  0  0  0  0  0  0  0  0  0  0  0
   -0.4409    5.1140    0.0000 N   0  0  0  0  0  0  0  0  0  0  0  0
    0.7081    6.0781    0.0000 O   0  0  0  0  0  0  0  0  0  0  0  0
   -0.4330   -0.7500    0.0000 H   0  0  0  0  0  0  0  0  0  0  0  0
   -2.1707   -0.4667    0.0000 H   0  0  0  0  0  0  0  0  0  0  0  0
   -1.8318    2.5084    0.0000 H   0  0  0  0  0  0  0  0  0  0  0  0
   -3.9005    2.6805    0.0000 H   0  0  0  0  0  0  0  0  0  0  0  0
   -3.8386   -1.2877    0.0000 H   0  0  0  0  0  0  0  0  0  0  0  0
   -5.8288    1.8824    0.0000 H   0  0  0  0  0  0  0  0  0  0  0  0
   -7.8191    1.5314    0.0000 H   0  0  0  0  0  0  0  0  0  0  0  0
   -8.6051   -0.6281    0.0000 H   0  0  0  0  0  0  0  0  0  0  0  0
   -7.3060   -2.1763    0.0000 H   0  0  0  0  0  0  0  0  0  0  0  0
   -5.0428   -1.7772    0.0000 H   0  0  0  0  0  0  0  0  0  0  0  0
   -1.6784    3.5583    0.0000 H   0  0  0  0  0  0  0  0  0  0  0  0
    1.2968    3.8972    0.0000 H   0  0  0  0  0  0  0  0  0  0  0  0
   -1.8505    5.6270    0.0000 H   0  0  0  0  0  0  0  0  0  0  0  0
    0.4477    7.5554    0.0000 H   0  0  0  0  0  0  0  0  0  0  0  0
  1  2  2  0
  2  3  1  0
  3  4  1  0
  4  5  1  0
  5  6  2  3
  6  7  1  0
  7  8  1  0
  8  9  1  0
  3 10  1  0
 10 11  1  0
 11 12  1  0
 12 13  1  0
 10  2  1  0
  9  7  1  0
  3 14  1  6
  4 15  1  0
  4 16  1  0
  5 17  1  0
  6 18  1  0
  7 19  1  0
  8 20  1  0
  8 21  1  0
  9 22  1  0
  9 23  1  0
 11 24  1  0
 11 25  1  0
 12 26  1  0
 13 27  1  0
M  END
$$$$
