
     RDKit          2D

 38 39  0  0  0  0  0  0  0  0999 V2000
    8.3660    0.0000    0.0000 C   0  0  0  0  0  0  0  0  0  0  0  0
    6.8660    0.0000    0.0000 C   0  0  0  0  0  0  0  0  0  0  0  0
    5.3660    0.0000    0.0000 C   0  0  0  0  0  0  0  0  0  0  0  0
    5.3660   -1.5000    0.0000 O   0  0  0  0  0  0  0  0  0  0  0  0
    3.8660    0.0000    0.0000 C   0  0  0  0  0  0  0  0  0  0  0  0
    2.3660    0.0000    0.0000 C   0  0  0  0  0  0  0  0  0  0  0  0
    0.8660    0.0000    0.0000 N   0  0  0  0  0  0  0  0  0  0  0  0
   -0.4330    0.7500    0.0000 C   0  0  0  0  0  0  0  0  0  0  0  0
   -1.9102    1.0105    0.0000 O   0  0  0  0  0  0  0  0  0  0  0  0
   -0.4330   -0.7500    0.0000 C   0  0  0  0  0  0  0  0  0  0  0  0
   -1.9330   -0.7500    0.0000 C   0  0  0  0  0  0  0  0  0  0  0  0
   -2.6830   -2.0490    0.0000 C   0  0  0  0  0  0  0  0  0  0  0  0
   -1.9330   -3.3481    0.0000 C   0  0  0  0  0  0  0  0  0  0  0  0
   -0.4330   -3.3481    0.0000 C   0  0  0  0  0  0  0  0  0  0  0  0
    0.3170   -2.0490    0.0000 C   0  0  0  0  0  0  0  0  0  0  0  0
    9.8660    0.0000    0.0000 H   0  0  0  0  0  0  0  0  0  0  0  0
    8.3660    1.5000    0.0000 H   0  0  0  0  0  0  0  0  0  0  0  0
    8.3660   -1.5000    0.0000 H   0  0  0  0  0  0  0  0  0  0  0  0
    6.8660    1.5000    0.0000 H   0  0  0  0  0  0  0  0  0  0  0  0
    7.0489   -1.4888    0.0000 H   0  0  0  0  0  0  0  0  0  0  0  0
    5.3660    1.5000    0.0000 H   0  0  0  0  0  0  0  0  0  0  0  0
    6.5640   -2.4028    0.0000 H   0  0  0  0  0  0  0  0  0  0  0  0
    3.8660    1.5000    0.0000 H   0  0  0  0  0  0  0  0  0  0  0  0
    3.8660   -1.5000    0.0000 H   0  0  0  0  0  0  0  0  0  0  0  0
    2.3660   -1.5000    0.0000 H   0  0  0  0  0  0  0  0  0  0  0  0
    2.3660    1.5000    0.0000 H   0  0  0  0  0  0  0  0  0  0  0  0
    0.0800    2.1595    0.0000 H   0  0  0  0  0  0  0  0  0  0  0  0
   -2.4233    2.4200    0.0000 H   0  0  0  0  0  0  0  0  0  0  0  0
   -3.3426   -0.2370    0.0000 H   0  0  0  0  0  0  0  0  0  0  0  0
   -1.9887    0.0452    0.0000 H   0  0  0  0  0  0  0  0  0  0  0  0
   -3.8321   -3.0132    0.0000 H   0  0  0  0  0  0  0  0  0  0  0  0
   -3.8321   -1.0849    0.0000 H   0  0  0  0  0  0  0  0  0  0  0  0
   -1.6725   -4.8253    0.0000 H   0  0  0  0  0  0  0  0  0  0  0  0
   -3.3426   -3.8611    0.0000 H   0  0  0  0  0  0  0  0  0  0  0  0
    0.9765   -3.8611    0.0000 H   0  0  0  0  0  0  0  0  0  0  0  0
   -0.6935   -4.8253    0.0000 H   0  0  0  0  0  0  0  0  0  0  0  0
    1.4661   -1.0849    0.0000 H   0  0  0  0  0  0  0  0  0  0  0  0
    1.4661   -3.0132    0.0000 H   0  0  0  0  0  0  0  0  0  0  0  0
  1  2  1  0
  2  3  1  0
  3  4  1  0
  3  5  1  0
  5  6  1  0
  6  7  1  0
  7  8  1  0
  8  9  1  0
  8 10  1  0
 10 11  1  0
 11 12  1  0
 12 13  1  0
 13 14  1  0
 14 15  1  0
 10  7  1  0
 15 10  1  0
  1 16  1  0
  1 17  1  0
  1 18  1  0
  2 19  1  0
  2 20  1  0
  3 21  1  1
  4 22  1  0
  5 23  1  0
  5 24  1  0
  6 25  1  0
  6 26  1  0
  8 27  1  1
  9 28  1  0
 11 29  1  0
 11 30  1  0
 12 31  1  0
 12 32  1  0
 13 33  1  0
 13 34  1  0
 14 35  1  0
 14 36  1  0
 15 37  1  0
 15 38  1  0
M  END
$$$$
