
     RDKit          2D

 54 57  0  0  0  0  0  0  0  0999 V2000
   -0.4679    3.0774    0.0000 C   0  0  0  0  0  0  0  0  0  0  0  0
    0.6811    2.1132    0.0000 C   0  0  0  0  0  0  0  0  0  0  0  0
    1.8302    1.1491    0.0000 C   0  0  0  0  0  0  0  0  0  0  0  0
    2.9793    0.1849    0.0000 C   0  0  0  0  0  0  0  0  0  0  0  0
    4.1283   -0.7793    0.0000 O   0  0  0  0  0  0  0  0  0  0  0  0
    0.8660    0.0000    0.0000 C   0  0  0  0  0  0  0  0  0  0  0  0
   -0.4330    0.7500    0.0000 C   0  0  0  0  0  0  0  0  0  0  0  0
   -1.9102    1.0105    0.0000 C   0  0  0  0  0  0  0  0  0  0  0  0
   -3.3874    1.2709    0.0000 C   0  0  0  0  0  0  0  0  0  0  0  0
   -4.8646    1.5314    0.0000 C   0  0  0  0  0  0  0  0  0  0  0  0
   -5.3777    0.1219    0.0000 C   0  0  0  0  0  0  0  0  0  0  0  0
   -6.3419   -1.0272    0.0000 C   0  0  0  0  0  0  0  0  0  0  0  0
   -6.8549    0.3824    0.0000 C   0  0  0  0  0  0  0  0  0  0  0  0
   -6.1637    2.2814    0.0000 C   0  0  0  0  0  0  0  0  0  0  0  0
   -4.8646    3.0314    0.0000 C   0  0  0  0  0  0  0  0  0  0  0  0
   -0.4330   -0.7500    0.0000 Al  0  0  0  0  0  3  0  0  0  0  0  0
   -1.1830   -2.0490    0.0000 C   0  0  0  0  0  0  0  0  0  0  0  0
   -1.9330   -3.3481    0.0000 C   0  0  0  0  0  0  0  0  0  0  0  0
   -2.1935   -4.8253    0.0000 C   0  0  0  0  0  0  0  0  0  0  0  0
   -0.7839   -4.3123    0.0000 C   0  0  0  0  0  0  0  0  0  0  0  0
   -0.0339   -5.6113    0.0000 C   0  0  0  0  0  0  0  0  0  0  0  0
   -1.6170    4.0416    0.0000 H   0  0  0  0  0  0  0  0  0  0  0  0
   -1.5650    2.0545    0.0000 H   0  0  0  0  0  0  0  0  0  0  0  0
    0.4963    4.2265    0.0000 H   0  0  0  0  0  0  0  0  0  0  0  0
    1.6453    3.2623    0.0000 H   0  0  0  0  0  0  0  0  0  0  0  0
    0.0362    1.6447    0.0000 H   0  0  0  0  0  0  0  0  0  0  0  0
    2.7944    2.2981    0.0000 H   0  0  0  0  0  0  0  0  0  0  0  0
    3.9435    1.3340    0.0000 H   0  0  0  0  0  0  0  0  0  0  0  0
    2.3837   -0.7322    0.0000 H   0  0  0  0  0  0  0  0  0  0  0  0
    3.8679   -2.2565    0.0000 H   0  0  0  0  0  0  0  0  0  0  0  0
    1.4616   -0.9171    0.0000 H   0  0  0  0  0  0  0  0  0  0  0  0
   -0.3061    1.9584    0.0000 H   0  0  0  0  0  0  0  0  0  0  0  0
   -1.8318    2.5084    0.0000 H   0  0  0  0  0  0  0  0  0  0  0  0
   -2.3488   -0.4240    0.0000 H   0  0  0  0  0  0  0  0  0  0  0  0
   -3.4659   -0.2270    0.0000 H   0  0  0  0  0  0  0  0  0  0  0  0
   -2.9488    2.7054    0.0000 H   0  0  0  0  0  0  0  0  0  0  0  0
   -4.1797   -0.7809    0.0000 H   0  0  0  0  0  0  0  0  0  0  0  0
   -5.3777   -2.1763    0.0000 H   0  0  0  0  0  0  0  0  0  0  0  0
   -7.6409   -1.7772    0.0000 H   0  0  0  0  0  0  0  0  0  0  0  0
   -8.3321    0.1219    0.0000 H   0  0  0  0  0  0  0  0  0  0  0  0
   -7.0377    1.8712    0.0000 H   0  0  0  0  0  0  0  0  0  0  0  0
   -7.2607    1.2584    0.0000 H   0  0  0  0  0  0  0  0  0  0  0  0
   -7.1279    3.4305    0.0000 H   0  0  0  0  0  0  0  0  0  0  0  0
   -5.3777    4.4410    0.0000 H   0  0  0  0  0  0  0  0  0  0  0  0
   -3.4302    3.4700    0.0000 H   0  0  0  0  0  0  0  0  0  0  0  0
    0.1978   -2.6351    0.0000 H   0  0  0  0  0  0  0  0  0  0  0  0
   -2.5638   -1.4630    0.0000 H   0  0  0  0  0  0  0  0  0  0  0  0
   -3.3426   -2.8350    0.0000 H   0  0  0  0  0  0  0  0  0  0  0  0
   -3.6935   -4.8253    0.0000 H   0  0  0  0  0  0  0  0  0  0  0  0
   -2.1150   -6.3232    0.0000 H   0  0  0  0  0  0  0  0  0  0  0  0
    0.4741   -3.4953    0.0000 H   0  0  0  0  0  0  0  0  0  0  0  0
    0.7161   -6.9103    0.0000 H   0  0  0  0  0  0  0  0  0  0  0  0
    1.2651   -4.8613    0.0000 H   0  0  0  0  0  0  0  0  0  0  0  0
   -1.2319   -6.5141    0.0000 H   0  0  0  0  0  0  0  0  0  0  0  0
  1  2  1  0
  2  3  1  0
  3  4  1  0
  4  5  1  0
  3  6  1  0
  6  7  1  0
  7  8  1  0
  8  9  1  0
  9 10  1  0
 10 11  1  0
 11 12  1  0
 12 13  1  0
 10 14  1  0
 14 15  1  0
  7 16  1  0
 16 17  1  0
 17 18  1  0
 18 19  1  0
 19 20  1  0
 20 21  1  0
 16  6  1  0
 20 18  1  0
 15 10  1  0
 13 11  1  0
  1 22  1  0
  1 23  1  0
  1 24  1  0
  2 25  1  0
  2 26  1  0
  3 27  1  0
  4 28  1  0
  4 29  1  0
  5 30  1  0
  6 31  1  0
  7 32  1  0
  8 33  1  0
  8 34  1  0
  9 35  1  0
  9 36  1  0
 11 37  1  0
 12 38  1  0
 12 39  1  0
 13 40  1  0
 13 41  1  0
 14 42  1  0
 14 43  1  0
 15 44  1  0
 15 45  1  0
 17 46  1  0
 17 47  1  0
 18 48  1  0
 19 49  1  0
 19 50  1  0
 20 51  1  0
 21 52  1  0
 21 53  1  0
 21 54  1  0
M  END
$$$$
