
     RDKit          2D

111117  0  0  0  0  0  0  0  0999 V2000
  -11.1908    4.7691    0.0000 C   0  0  0  0  0  0  0  0  0  0  0  0
   -9.7076    4.5455    0.0000 C   0  0  0  0  0  0  0  0  0  0  0  0
   -9.1596    3.1492    0.0000 C   0  0  0  0  0  0  0  0  0  0  0  0
   -8.6116    1.7529    0.0000 C   0  0  0  0  0  0  0  0  0  0  0  0
   -7.2152    2.3009    0.0000 C   0  0  0  0  0  0  0  0  0  0  0  0
   -6.1950    3.4005    0.0000 C   0  0  0  0  0  0  0  0  0  0  0  0
   -4.6992    3.2884    0.0000 N   0  0  0  0  0  0  0  0  0  0  0  0
   -3.8542    2.0490    0.0000 C   0  0  0  0  0  0  0  0  0  0  0  0
   -2.8339    3.1486    0.0000 S   0  0  0  0  0  0  0  0  0  0  0  0
   -1.3716    2.8148    0.0000 C   0  0  0  0  0  0  0  0  0  0  0  0
   -1.5060    4.3088    0.0000 C   0  0  0  0  0  0  0  0  0  0  0  0
   -0.7367    5.5965    0.0000 C   0  0  0  0  0  0  0  0  0  0  0  0
   -0.8711    7.0904    0.0000 C   0  0  0  0  0  0  0  0  0  0  0  0
    0.6426    6.1860    0.0000 C   0  0  0  0  0  0  0  0  0  0  0  0
    2.1050    5.8522    0.0000 C   0  0  0  0  0  0  0  0  0  0  0  0
    3.4843    6.4418    0.0000 C   0  0  0  0  0  0  0  0  0  0  0  0
    3.0919    4.7226    0.0000 C   0  0  0  0  0  0  0  0  0  0  0  0
    3.2264    3.2287    0.0000 C   0  0  0  0  0  0  0  0  0  0  0  0
    4.2133    2.0991    0.0000 C   0  0  0  0  0  0  0  0  0  0  0  0
    2.4570    1.9410    0.0000 C   0  0  0  0  0  0  0  0  0  0  0  0
    1.0777    1.3515    0.0000 C   0  0  0  0  0  0  0  0  0  0  0  0
    1.7286    0.0000    0.0000 C   0  0  0  0  0  0  0  0  0  0  0  0
    1.0777   -1.3515    0.0000 C   0  0  0  0  0  0  0  0  0  0  0  0
   -0.3846   -1.6852    0.0000 C   0  0  0  0  0  0  0  0  0  0  0  0
   -1.5574   -0.7500    0.0000 C   0  0  0  0  0  0  0  0  0  0  0  0
   -2.2082   -2.1015    0.0000 N   0  0  0  0  0  0  0  0  0  0  0  0
   -3.7040   -2.2135    0.0000 C   0  0  0  0  0  0  0  0  0  0  0  0
   -5.1003   -1.6655    0.0000 C   0  0  0  0  0  0  0  0  0  0  0  0
   -6.3994   -2.4155    0.0000 C   0  0  0  0  0  0  0  0  0  0  0  0
   -6.6229   -3.8988    0.0000 C   0  0  0  0  0  0  0  0  0  0  0  0
   -5.6027   -4.9984    0.0000 C   0  0  0  0  0  0  0  0  0  0  0  0
   -5.4906   -6.4942    0.0000 C   0  0  0  0  0  0  0  0  0  0  0  0
   -4.6456   -7.7335    0.0000 O   0  0  0  0  0  0  0  0  0  0  0  0
   -3.9948   -6.3821    0.0000 C   0  0  0  0  0  0  0  0  0  0  0  0
   -4.1069   -4.8863    0.0000 C   0  0  0  0  0  0  0  0  0  0  0  0
   -3.2619   -3.6469    0.0000 O   0  0  0  0  0  0  0  0  0  0  0  0
   -1.5574    0.7500    0.0000 C   0  0  0  0  0  0  0  0  0  0  0  0
   -0.3846    1.6852    0.0000 C   0  0  0  0  0  0  0  0  0  0  0  0
   -4.2963    0.6157    0.0000 C   0  0  0  0  0  0  0  0  0  0  0  0
   -5.6926    0.0677    0.0000 C   0  0  0  0  0  0  0  0  0  0  0  0
   -6.9917    0.8177    0.0000 S   0  0  0  0  0  0  0  0  0  0  0  0
   -8.0635    0.3566    0.0000 C   0  0  0  0  0  0  0  0  0  0  0  0
   -9.4599   -0.1914    0.0000 C   0  0  0  0  0  0  0  0  0  0  0  0
  -10.0079    1.2049    0.0000 C   0  0  0  0  0  0  0  0  0  0  0  0
  -10.5559    2.6012    0.0000 C   0  0  0  0  0  0  0  0  0  0  0  0
  -11.7388    6.1654    0.0000 H   0  0  0  0  0  0  0  0  0  0  0  0
  -12.1261    3.5963    0.0000 H   0  0  0  0  0  0  0  0  0  0  0  0
   -8.7723    5.7183    0.0000 H   0  0  0  0  0  0  0  0  0  0  0  0
   -7.9374    4.0188    0.0000 H   0  0  0  0  0  0  0  0  0  0  0  0
   -9.9500    3.0462    0.0000 H   0  0  0  0  0  0  0  0  0  0  0  0
   -8.0602    3.5403    0.0000 H   0  0  0  0  0  0  0  0  0  0  0  0
   -7.2739    4.4425    0.0000 H   0  0  0  0  0  0  0  0  0  0  0  0
   -5.7529    4.8339    0.0000 H   0  0  0  0  0  0  0  0  0  0  0  0
   -3.9492    4.5874    0.0000 H   0  0  0  0  0  0  0  0  0  0  0  0
   -2.4734    1.4630    0.0000 H   0  0  0  0  0  0  0  0  0  0  0  0
   -2.1409    1.5272    0.0000 H   0  0  0  0  0  0  0  0  0  0  0  0
   -2.6233    5.3097    0.0000 H   0  0  0  0  0  0  0  0  0  0  0  0
   -2.9870    4.0705    0.0000 H   0  0  0  0  0  0  0  0  0  0  0  0
   -2.1475    6.1060    0.0000 H   0  0  0  0  0  0  0  0  0  0  0  0
   -1.0056    8.5844    0.0000 H   0  0  0  0  0  0  0  0  0  0  0  0
   -2.3651    6.9560    0.0000 H   0  0  0  0  0  0  0  0  0  0  0  0
    0.5953    7.4060    0.0000 H   0  0  0  0  0  0  0  0  0  0  0  0
    1.4120    7.4737    0.0000 H   0  0  0  0  0  0  0  0  0  0  0  0
   -0.0416    7.5209    0.0000 H   0  0  0  0  0  0  0  0  0  0  0  0
    2.1537    7.3514    0.0000 H   0  0  0  0  0  0  0  0  0  0  0  0
    4.8636    7.0313    0.0000 H   0  0  0  0  0  0  0  0  0  0  0  0
    2.8948    7.8211    0.0000 H   0  0  0  0  0  0  0  0  0  0  0  0
    4.2376    5.1446    0.0000 H   0  0  0  0  0  0  0  0  0  0  0  0
    4.5543    4.3888    0.0000 H   0  0  0  0  0  0  0  0  0  0  0  0
    4.1500    5.7859    0.0000 H   0  0  0  0  0  0  0  0  0  0  0  0
    4.6673    3.6457    0.0000 H   0  0  0  0  0  0  0  0  0  0  0  0
    5.2002    0.9694    0.0000 H   0  0  0  0  0  0  0  0  0  0  0  0
    5.3429    3.0860    0.0000 H   0  0  0  0  0  0  0  0  0  0  0  0
    3.3561    0.8681    0.0000 H   0  0  0  0  0  0  0  0  0  0  0  0
    2.5915    0.4470    0.0000 H   0  0  0  0  0  0  0  0  0  0  0  0
    3.7952    1.2633    0.0000 H   0  0  0  0  0  0  0  0  0  0  0  0
    1.6673    2.7307    0.0000 H   0  0  0  0  0  0  0  0  0  0  0  0
    3.0928    0.6237    0.0000 H   0  0  0  0  0  0  0  0  0  0  0  0
    3.0066   -0.7853    0.0000 H   0  0  0  0  0  0  0  0  0  0  0  0
    2.4885   -1.8610    0.0000 H   0  0  0  0  0  0  0  0  0  0  0  0
    1.2606   -2.8403    0.0000 H   0  0  0  0  0  0  0  0  0  0  0  0
    0.0966   -3.1059    0.0000 H   0  0  0  0  0  0  0  0  0  0  0  0
   -1.1442   -2.9787    0.0000 H   0  0  0  0  0  0  0  0  0  0  0  0
   -3.0198   -0.4162    0.0000 H   0  0  0  0  0  0  0  0  0  0  0  0
   -1.5206   -3.4346    0.0000 H   0  0  0  0  0  0  0  0  0  0  0  0
   -3.6629   -0.7141    0.0000 H   0  0  0  0  0  0  0  0  0  0  0  0
   -4.2554   -0.4262    0.0000 H   0  0  0  0  0  0  0  0  0  0  0  0
   -6.3563   -0.8455    0.0000 H   0  0  0  0  0  0  0  0  0  0  0  0
   -7.3259   -1.2359    0.0000 H   0  0  0  0  0  0  0  0  0  0  0  0
   -7.8977   -2.3445    0.0000 H   0  0  0  0  0  0  0  0  0  0  0  0
   -8.0756   -3.5251    0.0000 H   0  0  0  0  0  0  0  0  0  0  0  0
   -7.6127   -5.0259    0.0000 H   0  0  0  0  0  0  0  0  0  0  0  0
   -6.8941   -5.7613    0.0000 H   0  0  0  0  0  0  0  0  0  0  0  0
   -6.9064   -6.9896    0.0000 H   0  0  0  0  0  0  0  0  0  0  0  0
   -2.5209   -6.6609    0.0000 H   0  0  0  0  0  0  0  0  0  0  0  0
   -2.6580   -5.2745    0.0000 H   0  0  0  0  0  0  0  0  0  0  0  0
   -3.0198    0.4162    0.0000 H   0  0  0  0  0  0  0  0  0  0  0  0
   -2.2082    2.1015    0.0000 H   0  0  0  0  0  0  0  0  0  0  0  0
   -0.5860    0.1988    0.0000 H   0  0  0  0  0  0  0  0  0  0  0  0
   -2.8721    0.1450    0.0000 H   0  0  0  0  0  0  0  0  0  0  0  0
   -3.8936   -0.8292    0.0000 H   0  0  0  0  0  0  0  0  0  0  0  0
   -5.3481   -1.3922    0.0000 H   0  0  0  0  0  0  0  0  0  0  0  0
   -6.8393   -0.8993    0.0000 H   0  0  0  0  0  0  0  0  0  0  0  0
   -7.8697   -1.1308    0.0000 H   0  0  0  0  0  0  0  0  0  0  0  0
   -6.5761    0.5505    0.0000 H   0  0  0  0  0  0  0  0  0  0  0  0
  -10.8562   -0.7394    0.0000 H   0  0  0  0  0  0  0  0  0  0  0  0
   -8.9118   -1.5877    0.0000 H   0  0  0  0  0  0  0  0  0  0  0  0
  -11.4042    0.6569    0.0000 H   0  0  0  0  0  0  0  0  0  0  0  0
  -11.4255    3.8234    0.0000 H   0  0  0  0  0  0  0  0  0  0  0  0
  -11.9522    2.0532    0.0000 H   0  0  0  0  0  0  0  0  0  0  0  0
   -9.3337    3.4708    0.0000 H   0  0  0  0  0  0  0  0  0  0  0  0
  1  2  2  3
  2  3  1  0
  4  3  1  6
  4  5  1  0
  5  6  1  0
  6  7  1  0
  7  8  1  0
  8  9  1  0
  9 10  1  0
 10 11  1  0
 11 12  1  0
 12 13  1  0
 12 14  1  0
 14 15  1  0
 15 16  1  0
 15 17  1  0
 17 18  1  0
 18 19  1  0
 18 20  1  0
 20 21  1  0
 21 22  1  0
 22 23  1  0
 23 24  1  0
 24 25  1  0
 25 26  1  0
 26 27  1  0
 27 28  1  0
 28 29  1  0
 29 30  1  0
 30 31  1  0
 31 32  1  0
 32 33  1  0
 33 34  1  0
 34 35  1  0
 35 36  1  0
 25 37  1  0
 37 38  1  0
  8 39  1  0
 39 40  1  0
 40 41  1  0
  4 42  1  0
 42 43  1  0
 43 44  1  0
 44 45  1  0
 44  4  1  0
 41  5  1  0
 38 10  1  0
 38 21  1  0
 36 27  1  0
 35 31  1  0
 34 32  1  0
  1 46  1  0
  1 47  1  0
  2 48  1  0
  3 49  1  0
  3 50  1  0
  5 51  1  6
  6 52  1  0
  6 53  1  0
  7 54  1  0
  8 55  1  1
 10 56  1  6
 11 57  1  0
 11 58  1  0
 12 59  1  6
 13 60  1  0
 13 61  1  0
 13 62  1  0
 14 63  1  0
 14 64  1  0
 15 65  1  6
 16 66  1  0
 16 67  1  0
 16 68  1  0
 17 69  1  0
 17 70  1  0
 18 71  1  1
 19 72  1  0
 19 73  1  0
 19 74  1  0
 20 75  1  0
 20 76  1  0
 21 77  1  1
 22 78  1  0
 22 79  1  0
 23 80  1  0
 23 81  1  0
 24 82  1  0
 24 83  1  0
 25 84  1  6
 26 85  1  0
 27 86  1  1
 28 87  1  0
 28 88  1  0
 29 89  1  0
 29 90  1  0
 30 91  1  0
 30 92  1  0
 31 93  1  1
 32 94  1  6
 34 95  1  6
 35 96  1  6
 37 97  1  0
 37 98  1  0
 38 99  1  1
 39100  1  0
 39101  1  0
 40102  1  0
 40103  1  0
 42104  1  0
 42105  1  0
 43106  1  0
 43107  1  0
 44108  1  1
 45109  1  0
 45110  1  0
 45111  1  0
M  END
$$$$
