
     RDKit          2D

 44 46  0  0  0  0  0  0  0  0999 V2000
    4.0741    1.8705    0.0000 C   0  0  0  0  0  0  0  0  0  0  0  0
    2.9013    0.9352    0.0000 C   0  0  0  0  0  0  0  0  0  0  0  0
    1.7286    0.0000    0.0000 C   0  0  0  0  0  0  0  0  0  0  0  0
    1.0777    1.3515    0.0000 C   0  0  0  0  0  0  0  0  0  0  0  0
   -0.3846    1.6852    0.0000 C   0  0  0  0  0  0  0  0  0  0  0  0
   -1.5574    0.7500    0.0000 C   0  0  0  0  0  0  0  0  0  0  0  0
   -1.5574   -0.7500    0.0000 C   0  0  0  0  0  0  0  0  0  0  0  0
   -0.3846   -1.6852    0.0000 N   0  0  0  0  0  0  0  0  0  0  0  0
   -0.7184   -3.1476    0.0000 C   0  0  0  0  0  0  0  0  0  0  0  0
   -1.0522   -4.6100    0.0000 C   0  0  0  0  0  0  0  0  0  0  0  0
   -1.3860   -6.0724    0.0000 N   0  0  0  0  0  0  0  0  0  0  0  0
   -0.2864   -7.0927    0.0000 C   0  0  0  0  0  0  0  0  0  0  0  0
   -0.9873   -8.4188    0.0000 C   0  0  0  0  0  0  0  0  0  0  0  0
    0.3389   -9.1197    0.0000 C   0  0  0  0  0  0  0  0  0  0  0  0
    1.0398   -7.7936    0.0000 C   0  0  0  0  0  0  0  0  0  0  0  0
    0.9837   -6.2946    0.0000 C   0  0  0  0  0  0  0  0  0  0  0  0
    1.0777   -1.3515    0.0000 N   0  0  0  0  0  0  0  0  0  0  0  0
    5.2468    2.8057    0.0000 H   0  0  0  0  0  0  0  0  0  0  0  0
    5.0093    0.6977    0.0000 H   0  0  0  0  0  0  0  0  0  0  0  0
    3.1388    3.0432    0.0000 H   0  0  0  0  0  0  0  0  0  0  0  0
    2.4840    1.6144    0.0000 H   0  0  0  0  0  0  0  0  0  0  0  0
    3.8366   -0.2375    0.0000 H   0  0  0  0  0  0  0  0  0  0  0  0
    2.9013   -0.9352    0.0000 H   0  0  0  0  0  0  0  0  0  0  0  0
    1.2606    2.8403    0.0000 H   0  0  0  0  0  0  0  0  0  0  0  0
    1.8275    1.6223    0.0000 H   0  0  0  0  0  0  0  0  0  0  0  0
   -1.4346    2.7564    0.0000 H   0  0  0  0  0  0  0  0  0  0  0  0
    0.0966    3.1059    0.0000 H   0  0  0  0  0  0  0  0  0  0  0  0
   -3.0496    0.5970    0.0000 H   0  0  0  0  0  0  0  0  0  0  0  0
   -2.3681    2.0120    0.0000 H   0  0  0  0  0  0  0  0  0  0  0  0
   -2.3681   -2.0120    0.0000 H   0  0  0  0  0  0  0  0  0  0  0  0
   -3.0496   -0.5970    0.0000 H   0  0  0  0  0  0  0  0  0  0  0  0
   -2.2106   -2.9946    0.0000 H   0  0  0  0  0  0  0  0  0  0  0  0
    0.7440   -3.4814    0.0000 H   0  0  0  0  0  0  0  0  0  0  0  0
   -2.5146   -4.2762    0.0000 H   0  0  0  0  0  0  0  0  0  0  0  0
    0.4400   -4.7631    0.0000 H   0  0  0  0  0  0  0  0  0  0  0  0
   -2.8193   -6.5145    0.0000 H   0  0  0  0  0  0  0  0  0  0  0  0
   -1.6882   -9.7450    0.0000 H   0  0  0  0  0  0  0  0  0  0  0  0
   -2.3135   -7.7179    0.0000 H   0  0  0  0  0  0  0  0  0  0  0  0
    1.6650   -9.8206    0.0000 H   0  0  0  0  0  0  0  0  0  0  0  0
   -0.3620  -10.4459    0.0000 H   0  0  0  0  0  0  0  0  0  0  0  0
    2.5022   -8.1274    0.0000 H   0  0  0  0  0  0  0  0  0  0  0  0
    2.4501   -5.9791    0.0000 H   0  0  0  0  0  0  0  0  0  0  0  0
    0.5919   -4.8467    0.0000 H   0  0  0  0  0  0  0  0  0  0  0  0
    2.0130   -2.5242    0.0000 H   0  0  0  0  0  0  0  0  0  0  0  0
  1  2  1  0
  2  3  1  0
  3  4  1  0
  4  5  1  0
  5  6  1  0
  6  7  1  0
  7  8  1  0
  8  9  1  0
  9 10  1  0
 10 11  1  0
 11 12  1  0
 12 13  1  0
 13 14  1  0
 14 15  1  0
 15 16  1  0
  8 17  1  0
 17  3  1  0
 15 12  1  0
 16 12  1  0
  1 18  1  0
  1 19  1  0
  1 20  1  0
  2 21  1  0
  2 22  1  0
  3 23  1  0
  4 24  1  0
  4 25  1  0
  5 26  1  0
  5 27  1  0
  6 28  1  0
  6 29  1  0
  7 30  1  0
  7 31  1  0
  9 32  1  0
  9 33  1  0
 10 34  1  0
 10 35  1  0
 11 36  1  0
 13 37  1  0
 13 38  1  0
 14 39  1  0
 14 40  1  0
 15 41  1  0
 16 42  1  0
 16 43  1  0
 17 44  1  0
M  END
$$$$
