
     RDKit          2D

 26 29  0  0  0  0  0  0  0  0999 V2000
   -3.4330    0.7500    0.0000 C   0  0  0  0  0  0  0  0  0  0  0  0
   -1.9330    0.7500    0.0000 C   0  0  0  0  0  0  0  0  0  0  0  0
   -1.9330    2.2500    0.0000 F   0  0  0  0  0  0  0  0  0  0  0  0
   -0.4330    0.7500    0.0000 C   0  0  0  0  0  0  0  0  0  0  0  0
    0.8660    0.0000    0.0000 C   0  0  0  0  0  0  0  0  0  0  0  0
   -0.4330   -0.7500    0.0000 C   0  0  0  0  0  0  0  0  0  0  0  0
   -1.9330   -0.7500    0.0000 C   0  0  0  0  0  0  0  0  0  0  0  0
   -1.9330   -2.2500    0.0000 C   0  0  0  0  0  0  0  0  0  0  0  0
   -1.9330   -3.7500    0.0000 C   0  0  0  0  0  0  0  0  0  0  0  0
   -0.6340   -4.5000    0.0000 O   0  0  0  0  0  0  0  0  0  0  0  0
   -1.9330   -5.2500    0.0000 C   0  0  0  0  0  0  0  0  0  0  0  0
   -1.9330   -6.7500    0.0000 F   0  0  0  0  0  0  0  0  0  0  0  0
   -3.2321   -4.5000    0.0000 C   0  0  0  0  0  0  0  0  0  0  0  0
   -4.1962   -5.6491    0.0000 O   0  0  0  0  0  0  0  0  0  0  0  0
   -4.9330    0.7500    0.0000 H   0  0  0  0  0  0  0  0  0  0  0  0
   -3.4330    2.2500    0.0000 H   0  0  0  0  0  0  0  0  0  0  0  0
   -3.5410   -0.1291    0.0000 H   0  0  0  0  0  0  0  0  0  0  0  0
   -0.0448    2.1989    0.0000 H   0  0  0  0  0  0  0  0  0  0  0  0
    1.8302    1.1491    0.0000 H   0  0  0  0  0  0  0  0  0  0  0  0
    1.8302   -1.1491    0.0000 H   0  0  0  0  0  0  0  0  0  0  0  0
    0.0222   -1.8765    0.0000 H   0  0  0  0  0  0  0  0  0  0  0  0
   -2.8121   -0.8580    0.0000 H   0  0  0  0  0  0  0  0  0  0  0  0
   -3.4330   -2.2500    0.0000 H   0  0  0  0  0  0  0  0  0  0  0  0
   -0.7271   -2.3981    0.0000 H   0  0  0  0  0  0  0  0  0  0  0  0
   -4.1962   -3.3509    0.0000 H   0  0  0  0  0  0  0  0  0  0  0  0
   -5.6734   -5.3886    0.0000 H   0  0  0  0  0  0  0  0  0  0  0  0
  1  2  1  0
  2  3  1  0
  2  4  1  0
  4  5  1  0
  5  6  1  0
  6  7  1  0
  7  8  1  0
  8  9  1  0
  9 10  1  0
 10 11  1  0
 11 12  1  0
 11 13  1  0
 13 14  1  0
  7  2  1  0
 11  9  1  0
  6  4  1  0
 13  9  1  0
  1 15  1  0
  1 16  1  0
  1 17  1  0
  4 18  1  0
  5 19  1  0
  5 20  1  0
  6 21  1  0
  7 22  1  0
  8 23  1  0
  8 24  1  0
 13 25  1  0
 14 26  1  0
M  END
$$$$
