
     RDKit          2D

102108  0  0  0  0  0  0  0  0999 V2000
   -2.1655   -8.4097    0.0000 C   0  0  0  0  0  0  0  0  0  0  0  0
   -1.1048   -9.4704    0.0000 C   0  0  0  0  0  0  0  0  0  0  0  0
    0.3441   -9.0821    0.0000 C   0  0  0  0  0  0  0  0  0  0  0  0
    1.7930   -8.6939    0.0000 C   0  0  0  0  0  0  0  0  0  0  0  0
    1.6622   -7.1996    0.0000 N   0  0  0  0  0  0  0  0  0  0  0  0
    2.8910   -6.3393    0.0000 C   0  0  0  0  0  0  0  0  0  0  0  0
    4.1197   -5.4789    0.0000 C   0  0  0  0  0  0  0  0  0  0  0  0
    5.3484   -4.6185    0.0000 C   0  0  0  0  0  0  0  0  0  0  0  0
    0.3028   -6.5657    0.0000 C   0  0  0  0  0  0  0  0  0  0  0  0
   -1.0567   -5.9318    0.0000 N   0  0  0  0  0  0  0  0  0  0  0  0
   -1.1874   -4.4375    0.0000 C   0  0  0  0  0  0  0  0  0  0  0  0
   -1.3182   -2.9432    0.0000 C   0  0  0  0  0  0  0  0  0  0  0  0
   -1.4489   -1.4489    0.0000 C   0  0  0  0  0  0  0  0  0  0  0  0
   -0.0000   -1.0607    0.0000 C   0  0  0  0  0  0  0  0  0  0  0  0
    1.0607    0.0000    0.0000 Se  0  0  0  0  0  2  0  0  0  0  0  0
    0.0000    1.0607    0.0000 C   0  0  0  0  0  0  0  0  0  0  0  0
   -1.0607    2.1213    0.0000 C   0  0  0  0  0  0  0  0  0  0  0  0
   -1.0607    0.0000    0.0000 C   0  0  0  0  0  0  0  0  0  0  0  0
    0.9367   -5.2062    0.0000 N   0  0  0  0  0  0  0  0  0  0  0  0
    2.1654   -4.3459    0.0000 C   0  0  0  0  0  0  0  0  0  0  0  0
    0.8060   -3.7119    0.0000 C   0  0  0  0  0  0  0  0  0  0  0  0
    1.4399   -2.3525    0.0000 C   0  0  0  0  0  0  0  0  0  0  0  0
    2.7994   -2.9864    0.0000 C   0  0  0  0  0  0  0  0  0  0  0  0
    4.1588   -3.6203    0.0000 C   0  0  0  0  0  0  0  0  0  0  0  0
    3.4333   -1.6269    0.0000 C   0  0  0  0  0  0  0  0  0  0  0  0
    4.0672   -0.2675    0.0000 C   0  0  0  0  0  0  0  0  0  0  0  0
    4.7011    1.0920    0.0000 C   0  0  0  0  0  0  0  0  0  0  0  0
    5.3351    2.4514    0.0000 C   0  0  0  0  0  0  0  0  0  0  0  0
    5.9690    3.8109    0.0000 C   0  0  0  0  0  0  0  0  0  0  0  0
    3.9756    3.0854    0.0000 C   0  0  0  0  0  0  0  0  0  0  0  0
    2.4269  -10.0534    0.0000 C   0  0  0  0  0  0  0  0  0  0  0  0
    3.2873   -8.8246    0.0000 C   0  0  0  0  0  0  0  0  0  0  0  0
    4.6467   -9.4586    0.0000 C   0  0  0  0  0  0  0  0  0  0  0  0
    5.5071   -8.2298    0.0000 C   0  0  0  0  0  0  0  0  0  0  0  0
    7.0014   -8.3606    0.0000 C   0  0  0  0  0  0  0  0  0  0  0  0
    7.3896   -6.9117    0.0000 C   0  0  0  0  0  0  0  0  0  0  0  0
    8.8385   -6.5235    0.0000 C   0  0  0  0  0  0  0  0  0  0  0  0
    6.1410   -9.5893    0.0000 C   0  0  0  0  0  0  0  0  0  0  0  0
    6.7749  -10.9488    0.0000 C   0  0  0  0  0  0  0  0  0  0  0  0
    8.2692  -11.0795    0.0000 C   0  0  0  0  0  0  0  0  0  0  0  0
    8.9032  -12.4390    0.0000 C   0  0  0  0  0  0  0  0  0  0  0  0
   10.3975  -12.5697    0.0000 C   0  0  0  0  0  0  0  0  0  0  0  0
    8.0428  -13.6677    0.0000 Mg  0  0  0  0  0  2  0  0  0  0  0  0
   -3.6144   -8.7979    0.0000 H   0  0  0  0  0  0  0  0  0  0  0  0
   -2.0285   -7.4351    0.0000 H   0  0  0  0  0  0  0  0  0  0  0  0
   -1.4930  -10.9193    0.0000 H   0  0  0  0  0  0  0  0  0  0  0  0
    0.0123   -8.2609    0.0000 H   0  0  0  0  0  0  0  0  0  0  0  0
    0.5528  -10.5675    0.0000 H   0  0  0  0  0  0  0  0  0  0  0  0
    2.4556   -5.2049    0.0000 H   0  0  0  0  0  0  0  0  0  0  0  0
    3.8947   -7.4539    0.0000 H   0  0  0  0  0  0  0  0  0  0  0  0
    5.1234   -6.5936    0.0000 H   0  0  0  0  0  0  0  0  0  0  0  0
    3.1160   -4.3642    0.0000 H   0  0  0  0  0  0  0  0  0  0  0  0
    6.5771   -3.7582    0.0000 H   0  0  0  0  0  0  0  0  0  0  0  0
    6.0526   -5.9430    0.0000 H   0  0  0  0  0  0  0  0  0  0  0  0
    4.9958   -3.6997    0.0000 H   0  0  0  0  0  0  0  0  0  0  0  0
   -0.1666   -7.3168    0.0000 H   0  0  0  0  0  0  0  0  0  0  0  0
   -1.9257   -6.3938    0.0000 H   0  0  0  0  0  0  0  0  0  0  0  0
   -2.6817   -4.5682    0.0000 H   0  0  0  0  0  0  0  0  0  0  0  0
    0.2308   -3.9490    0.0000 H   0  0  0  0  0  0  0  0  0  0  0  0
    0.1809   -2.9956    0.0000 H   0  0  0  0  0  0  0  0  0  0  0  0
   -2.8124   -3.0739    0.0000 H   0  0  0  0  0  0  0  0  0  0  0  0
   -2.9432   -1.3182    0.0000 H   0  0  0  0  0  0  0  0  0  0  0  0
    1.1658   -2.0045    0.0000 H   0  0  0  0  0  0  0  0  0  0  0  0
    1.0607    2.1213    0.0000 H   0  0  0  0  0  0  0  0  0  0  0  0
   -2.1213    3.1820    0.0000 H   0  0  0  0  0  0  0  0  0  0  0  0
   -0.0000    3.1820    0.0000 H   0  0  0  0  0  0  0  0  0  0  0  0
   -2.2427    1.1979    0.0000 H   0  0  0  0  0  0  0  0  0  0  0  0
   -2.4414    0.5861    0.0000 H   0  0  0  0  0  0  0  0  0  0  0  0
    3.1884   -5.4429    0.0000 H   0  0  0  0  0  0  0  0  0  0  0  0
   -0.6712   -3.4515    0.0000 H   0  0  0  0  0  0  0  0  0  0  0  0
    1.9034   -0.9259    0.0000 H   0  0  0  0  0  0  0  0  0  0  0  0
    0.2742   -1.4084    0.0000 H   0  0  0  0  0  0  0  0  0  0  0  0
    5.6313   -3.9065    0.0000 H   0  0  0  0  0  0  0  0  0  0  0  0
    4.9537   -2.3483    0.0000 H   0  0  0  0  0  0  0  0  0  0  0  0
    3.2148   -4.7860    0.0000 H   0  0  0  0  0  0  0  0  0  0  0  0
    4.8599   -2.0904    0.0000 H   0  0  0  0  0  0  0  0  0  0  0  0
    2.1612   -0.8320    0.0000 H   0  0  0  0  0  0  0  0  0  0  0  0
    5.4267   -0.9014    0.0000 H   0  0  0  0  0  0  0  0  0  0  0  0
    2.7077    0.3664    0.0000 H   0  0  0  0  0  0  0  0  0  0  0  0
    6.0606    0.4581    0.0000 H   0  0  0  0  0  0  0  0  0  0  0  0
    3.2745    1.5555    0.0000 H   0  0  0  0  0  0  0  0  0  0  0  0
    6.6945    1.8175    0.0000 H   0  0  0  0  0  0  0  0  0  0  0  0
    6.6029    5.1704    0.0000 H   0  0  0  0  0  0  0  0  0  0  0  0
    7.3285    3.1770    0.0000 H   0  0  0  0  0  0  0  0  0  0  0  0
    4.6969    4.6058    0.0000 H   0  0  0  0  0  0  0  0  0  0  0  0
    2.6161    3.7193    0.0000 H   0  0  0  0  0  0  0  0  0  0  0  0
    4.4391    4.5120    0.0000 H   0  0  0  0  0  0  0  0  0  0  0  0
    3.1807    1.8133    0.0000 H   0  0  0  0  0  0  0  0  0  0  0  0
    1.3122  -11.0571    0.0000 H   0  0  0  0  0  0  0  0  0  0  0  0
    3.3504  -11.2354    0.0000 H   0  0  0  0  0  0  0  0  0  0  0  0
    3.8492   -7.4339    0.0000 H   0  0  0  0  0  0  0  0  0  0  0  0
    4.4380  -10.9440    0.0000 H   0  0  0  0  0  0  0  0  0  0  0  0
    5.0436   -6.8032    0.0000 H   0  0  0  0  0  0  0  0  0  0  0  0
    8.3608   -8.9945    0.0000 H   0  0  0  0  0  0  0  0  0  0  0  0
    6.2076   -5.9882    0.0000 H   0  0  0  0  0  0  0  0  0  0  0  0
    9.2267   -5.0746    0.0000 H   0  0  0  0  0  0  0  0  0  0  0  0
    9.8992   -7.5841    0.0000 H   0  0  0  0  0  0  0  0  0  0  0  0
    5.9146  -12.1775    0.0000 H   0  0  0  0  0  0  0  0  0  0  0  0
    9.1296   -9.8508    0.0000 H   0  0  0  0  0  0  0  0  0  0  0  0
   11.8917  -12.7004    0.0000 H   0  0  0  0  0  0  0  0  0  0  0  0
   10.2667  -14.0640    0.0000 H   0  0  0  0  0  0  0  0  0  0  0  0
   10.5282  -11.0754    0.0000 H   0  0  0  0  0  0  0  0  0  0  0  0
  1  2  2  3
  2  3  1  0
  3  4  1  0
  4  5  1  6
  5  6  1  0
  6  7  1  0
  7  8  1  0
  5  9  1  0
  9 10  1  0
 10 11  1  0
 11 12  1  0
 12 13  1  0
 13 14  1  0
 14 15  1  0
 15 16  1  0
 16 17  1  0
 16 18  1  0
  9 19  1  0
 19 20  1  0
 20 21  1  0
 21 22  1  0
 22 23  1  0
 23 24  1  6
 23 25  1  0
 25 26  1  0
 26 27  1  0
 27 28  1  0
 28 29  1  0
 28 30  1  0
  4 31  1  0
 31 32  1  0
 32 33  1  0
 33 34  1  0
 34 35  1  0
 35 36  1  0
 36 37  2  3
 35 38  1  0
 38 39  1  1
 39 40  2  3
 40 41  1  0
 41 42  1  0
 41 43  2  0
 32  4  1  0
 38 33  1  0
 18 13  1  0
 21 19  1  0
 38 34  1  0
 18 14  1  0
 23 20  1  0
  1 44  1  0
  1 45  1  0
  2 46  1  0
  3 47  1  0
  3 48  1  0
  6 49  1  0
  6 50  1  0
  7 51  1  0
  7 52  1  0
  8 53  1  0
  8 54  1  0
  8 55  1  0
  9 56  1  6
 10 57  1  0
 11 58  1  0
 11 59  1  0
 12 60  1  0
 12 61  1  0
 13 62  1  1
 14 63  1  1
 16 64  1  1
 17 65  1  0
 17 66  1  0
 17 67  1  0
 18 68  1  1
 20 69  1  1
 21 70  1  1
 22 71  1  0
 22 72  1  0
 24 73  1  0
 24 74  1  0
 24 75  1  0
 25 76  1  0
 25 77  1  0
 26 78  1  0
 26 79  1  0
 27 80  1  0
 27 81  1  0
 28 82  1  0
 29 83  1  0
 29 84  1  0
 29 85  1  0
 30 86  1  0
 30 87  1  0
 30 88  1  0
 31 89  1  0
 31 90  1  0
 32 91  1  1
 33 92  1  1
 34 93  1  1
 35 94  1  1
 36 95  1  0
 37 96  1  0
 37 97  1  0
 39 98  1  0
 40 99  1  0
 42100  1  0
 42101  1  0
 42102  1  0
M  END
$$$$
