
     RDKit          2D

102111  0  0  0  0  0  0  0  0999 V2000
   -7.7938    2.7581    0.0000 C   0  0  0  0  0  0  0  0  0  0  0  0
   -6.2986    2.6384    0.0000 C   0  0  0  0  0  0  0  0  0  0  0  0
   -5.4473    3.8734    0.0000 C   0  0  0  0  0  0  0  0  0  0  0  0
   -4.5960    5.1084    0.0000 C   0  0  0  0  0  0  0  0  0  0  0  0
   -3.7447    6.3435    0.0000 C   0  0  0  0  0  0  0  0  0  0  0  0
   -5.8310    5.9597    0.0000 C   0  0  0  0  0  0  0  0  0  0  0  0
   -7.0660    6.8110    0.0000 C   0  0  0  0  0  0  0  0  0  0  0  0
   -8.3010    7.6624    0.0000 C   0  0  0  0  0  0  0  0  0  0  0  0
   -9.5360    8.5137    0.0000 C   0  0  0  0  0  0  0  0  0  0  0  0
  -10.4054    9.7360    0.0000 C   0  0  0  0  0  0  0  0  0  0  0  0
   -8.9121    9.8777    0.0000 C   0  0  0  0  0  0  0  0  0  0  0  0
   -5.6547    1.2836    0.0000 C   0  0  0  0  0  0  0  0  0  0  0  0
   -4.2999    1.9275    0.0000 N   0  0  0  0  0  0  0  0  0  0  0  0
   -3.6560    0.5728    0.0000 C   0  0  0  0  0  0  0  0  0  0  0  0
   -3.0121   -0.7820    0.0000 C   0  0  0  0  0  0  0  0  0  0  0  0
   -4.4267   -1.2808    0.0000 O   0  0  0  0  0  0  0  0  0  0  0  0
   -4.7021   -2.7553    0.0000 C   0  0  0  0  0  0  0  0  0  0  0  0
   -1.7321    0.0000    0.0000 C   0  0  0  0  0  0  0  0  0  0  0  0
   -0.4330    0.7500    0.0000 C   0  0  0  0  0  0  0  0  0  0  0  0
    0.8660    0.0000    0.0000 C   0  0  0  0  0  0  0  0  0  0  0  0
   -0.4330   -0.7500    0.0000 C   0  0  0  0  0  0  0  0  0  0  0  0
   -1.8596   -1.2135    0.0000 C   0  0  0  0  0  0  0  0  0  0  0  0
   -2.7413    0.0000    0.0000 C   0  0  0  0  0  0  0  0  0  0  0  0
   -4.1679   -0.4635    0.0000 C   0  0  0  0  0  0  0  0  0  0  0  0
   -4.1679   -1.9635    0.0000 C   0  0  0  0  0  0  0  0  0  0  0  0
   -5.6596   -1.8067    0.0000 C   0  0  0  0  0  0  0  0  0  0  0  0
   -7.1514   -1.6499    0.0000 C   0  0  0  0  0  0  0  0  0  0  0  0
   -8.6432   -1.4931    0.0000 C   0  0  0  0  0  0  0  0  0  0  0  0
   -7.3082   -3.1417    0.0000 C   0  0  0  0  0  0  0  0  0  0  0  0
   -7.4650   -4.6335    0.0000 C   0  0  0  0  0  0  0  0  0  0  0  0
   -7.6218   -6.1253    0.0000 N   0  0  0  0  0  0  0  0  0  0  0  0
   -6.6778   -7.2910    0.0000 C   0  0  0  0  0  0  0  0  0  0  0  0
   -7.8435   -8.2350    0.0000 C   0  0  0  0  0  0  0  0  0  0  0  0
   -9.0093   -9.1790    0.0000 C   0  0  0  0  0  0  0  0  0  0  0  0
   -9.9532   -8.0132    0.0000 C   0  0  0  0  0  0  0  0  0  0  0  0
   -8.7875   -7.0693    0.0000 C   0  0  0  0  0  0  0  0  0  0  0  0
   -9.3251   -8.4696    0.0000 C   0  0  0  0  0  0  0  0  0  0  0  0
   -2.7413   -2.4271    0.0000 C   0  0  0  0  0  0  0  0  0  0  0  0
   -2.2777   -3.8536    0.0000 F   0  0  0  0  0  0  0  0  0  0  0  0
   -1.8596    1.2135    0.0000 C   0  0  0  0  0  0  0  0  0  0  0  0
   -3.1586    1.9635    0.0000 C   0  0  0  0  0  0  0  0  0  0  0  0
   -4.4577    2.7135    0.0000 C   0  0  0  0  0  0  0  0  0  0  0  0
   -5.0108   -0.0711    0.0000 C   0  0  0  0  0  0  0  0  0  0  0  0
   -6.4811   -0.3681    0.0000 F   0  0  0  0  0  0  0  0  0  0  0  0
   -8.4377    4.1129    0.0000 H   0  0  0  0  0  0  0  0  0  0  0  0
   -8.6451    1.5231    0.0000 H   0  0  0  0  0  0  0  0  0  0  0  0
   -6.7768    4.5678    0.0000 H   0  0  0  0  0  0  0  0  0  0  0  0
   -3.9892    3.5214    0.0000 H   0  0  0  0  0  0  0  0  0  0  0  0
   -3.2664    4.4140    0.0000 H   0  0  0  0  0  0  0  0  0  0  0  0
   -2.8933    7.5785    0.0000 H   0  0  0  0  0  0  0  0  0  0  0  0
   -4.8667    7.3390    0.0000 H   0  0  0  0  0  0  0  0  0  0  0  0
   -2.5096    5.4922    0.0000 H   0  0  0  0  0  0  0  0  0  0  0  0
   -5.1366    7.2893    0.0000 H   0  0  0  0  0  0  0  0  0  0  0  0
   -6.8265    4.8377    0.0000 H   0  0  0  0  0  0  0  0  0  0  0  0
   -6.2147    8.0461    0.0000 H   0  0  0  0  0  0  0  0  0  0  0  0
   -7.9173    5.5760    0.0000 H   0  0  0  0  0  0  0  0  0  0  0  0
   -7.3055    8.7844    0.0000 H   0  0  0  0  0  0  0  0  0  0  0  0
   -9.1523    6.4273    0.0000 H   0  0  0  0  0  0  0  0  0  0  0  0
  -10.5889    7.4452    0.0000 H   0  0  0  0  0  0  0  0  0  0  0  0
  -11.7602    9.0921    0.0000 H   0  0  0  0  0  0  0  0  0  0  0  0
  -10.8043   11.1820    0.0000 H   0  0  0  0  0  0  0  0  0  0  0  0
   -8.7924   11.3730    0.0000 H   0  0  0  0  0  0  0  0  0  0  0  0
   -7.4252    9.6800    0.0000 H   0  0  0  0  0  0  0  0  0  0  0  0
   -7.0778    0.8097    0.0000 H   0  0  0  0  0  0  0  0  0  0  0  0
   -3.4702    3.1772    0.0000 H   0  0  0  0  0  0  0  0  0  0  0  0
   -5.0108   -0.0711    0.0000 H   0  0  0  0  0  0  0  0  0  0  0  0
   -4.9775   -4.2298    0.0000 H   0  0  0  0  0  0  0  0  0  0  0  0
   -6.1994   -2.8449    0.0000 H   0  0  0  0  0  0  0  0  0  0  0  0
   -3.3381   -3.3793    0.0000 H   0  0  0  0  0  0  0  0  0  0  0  0
   -3.0564    0.7044    0.0000 H   0  0  0  0  0  0  0  0  0  0  0  0
    1.8302    1.1491    0.0000 H   0  0  0  0  0  0  0  0  0  0  0  0
    1.8302   -1.1491    0.0000 H   0  0  0  0  0  0  0  0  0  0  0  0
   -0.9779   -2.4271    0.0000 H   0  0  0  0  0  0  0  0  0  0  0  0
   -3.3031    1.3908    0.0000 H   0  0  0  0  0  0  0  0  0  0  0  0
   -4.9849    0.7944    0.0000 H   0  0  0  0  0  0  0  0  0  0  0  0
   -5.6294   -0.8010    0.0000 H   0  0  0  0  0  0  0  0  0  0  0  0
   -4.1154   -3.4626    0.0000 H   0  0  0  0  0  0  0  0  0  0  0  0
   -5.8164   -3.2985    0.0000 H   0  0  0  0  0  0  0  0  0  0  0  0
   -6.2217   -0.4160    0.0000 H   0  0  0  0  0  0  0  0  0  0  0  0
   -7.3603   -0.1645    0.0000 H   0  0  0  0  0  0  0  0  0  0  0  0
  -10.1350   -1.3364    0.0000 H   0  0  0  0  0  0  0  0  0  0  0  0
   -8.9807   -2.9547    0.0000 H   0  0  0  0  0  0  0  0  0  0  0  0
   -8.4864   -0.0014    0.0000 H   0  0  0  0  0  0  0  0  0  0  0  0
   -8.8080   -3.1679    0.0000 H   0  0  0  0  0  0  0  0  0  0  0  0
   -5.8987   -3.6548    0.0000 H   0  0  0  0  0  0  0  0  0  0  0  0
   -8.9568   -4.4767    0.0000 H   0  0  0  0  0  0  0  0  0  0  0  0
   -5.9732   -4.7903    0.0000 H   0  0  0  0  0  0  0  0  0  0  0  0
   -5.7338   -8.4567    0.0000 H   0  0  0  0  0  0  0  0  0  0  0  0
   -5.5121   -6.3470    0.0000 H   0  0  0  0  0  0  0  0  0  0  0  0
  -10.0512  -10.2580    0.0000 H   0  0  0  0  0  0  0  0  0  0  0  0
   -8.0653  -10.3447    0.0000 H   0  0  0  0  0  0  0  0  0  0  0  0
  -10.8972   -6.8475    0.0000 H   0  0  0  0  0  0  0  0  0  0  0  0
  -11.2253   -8.8081    0.0000 H   0  0  0  0  0  0  0  0  0  0  0  0
  -10.8214   -8.3650    0.0000 H   0  0  0  0  0  0  0  0  0  0  0  0
   -9.5339   -9.9550    0.0000 H   0  0  0  0  0  0  0  0  0  0  0  0
   -1.2495    2.5838    0.0000 H   0  0  0  0  0  0  0  0  0  0  0  0
   -2.4086    3.2626    0.0000 H   0  0  0  0  0  0  0  0  0  0  0  0
   -4.4308    1.1688    0.0000 H   0  0  0  0  0  0  0  0  0  0  0  0
   -5.5366    3.7556    0.0000 H   0  0  0  0  0  0  0  0  0  0  0  0
   -3.7077    4.0126    0.0000 H   0  0  0  0  0  0  0  0  0  0  0  0
   -5.6235    1.7696    0.0000 H   0  0  0  0  0  0  0  0  0  0  0  0
   -5.0784   -1.5696    0.0000 H   0  0  0  0  0  0  0  0  0  0  0  0
  1  2  2  3
  2  3  1  0
  3  4  1  0
  4  5  1  0
  4  6  1  0
  6  7  1  0
  7  8  1  0
  8  9  1  0
  9 10  1  0
 10 11  1  0
  2 12  1  0
 12 13  1  0
 13 14  1  0
 14 15  1  0
 15 16  1  0
 16 17  1  0
 15 18  1  0
 18 19  1  0
 19 20  1  0
 20 21  1  0
 21 22  1  0
 22 23  1  0
 23 24  1  0
 24 25  1  0
 25 26  1  0
 26 27  1  0
 27 28  1  0
 27 29  1  0
 29 30  1  0
 30 31  1  0
 31 32  1  0
 32 33  1  0
 33 34  1  0
 34 35  1  0
 35 36  1  0
 36 37  1  0
 25 38  1  0
 38 39  1  0
 23 40  1  0
 40 41  1  0
 41 42  1  0
 14 43  1  0
 43 44  1  0
 11  9  1  0
 43 12  1  0
 38 15  1  0
 21 18  1  0
 38 22  1  0
 21 19  1  0
 36 31  1  0
 40 19  1  0
 36 33  1  0
 37 33  1  0
  1 45  1  0
  1 46  1  0
  3 47  1  0
  3 48  1  0
  4 49  1  0
  5 50  1  0
  5 51  1  0
  5 52  1  0
  6 53  1  0
  6 54  1  0
  7 55  1  0
  7 56  1  0
  8 57  1  0
  8 58  1  0
  9 59  1  0
 10 60  1  0
 10 61  1  0
 11 62  1  0
 11 63  1  0
 12 64  1  0
 13 65  1  0
 14 66  1  0
 17 67  1  0
 17 68  1  0
 17 69  1  0
 18 70  1  0
 20 71  1  0
 20 72  1  0
 22 73  1  0
 23 74  1  0
 24 75  1  0
 24 76  1  0
 25 77  1  0
 26 78  1  0
 26 79  1  0
 27 80  1  0
 28 81  1  0
 28 82  1  0
 28 83  1  0
 29 84  1  0
 29 85  1  0
 30 86  1  0
 30 87  1  0
 32 88  1  0
 32 89  1  0
 34 90  1  0
 34 91  1  0
 35 92  1  0
 35 93  1  0
 37 94  1  0
 37 95  1  0
 40 96  1  0
 41 97  1  0
 41 98  1  0
 42 99  1  0
 42100  1  0
 42101  1  0
 43102  1  0
M  END
$$$$
