
     RDKit          2D

 38 39  0  0  0  0  0  0  0  0999 V2000
    3.3074    0.8886    0.0000 C   0  0  0  0  0  0  0  0  0  0  0  0
    1.8302    1.1491    0.0000 C   0  0  0  0  0  0  0  0  0  0  0  0
    0.8660    0.0000    0.0000 C   0  0  0  0  0  0  0  0  0  0  0  0
   -0.4330    0.7500    0.0000 C   0  0  0  0  0  0  0  0  0  0  0  0
   -1.9102    1.0105    0.0000 C   0  0  0  0  0  0  0  0  0  0  0  0
   -3.3874    1.2709    0.0000 C   0  0  0  0  0  0  0  0  0  0  0  0
   -4.8646    1.5314    0.0000 C   0  0  0  0  0  0  0  0  0  0  0  0
   -6.3419    1.7919    0.0000 C   0  0  0  0  0  0  0  0  0  0  0  0
   -7.8191    2.0524    0.0000 C   0  0  0  0  0  0  0  0  0  0  0  0
   -0.4330   -0.7500    0.0000 C   0  0  0  0  0  0  0  0  0  0  0  0
    0.0800   -2.1595    0.0000 C   0  0  0  0  0  0  0  0  0  0  0  0
    1.5572   -1.8991    0.0000 O   0  0  0  0  0  0  0  0  0  0  0  0
    0.0800   -3.6595    0.0000 O   0  0  0  0  0  0  0  0  0  0  0  0
   -1.2190   -2.9095    0.0000 C   0  0  0  0  0  0  0  0  0  0  0  0
   -2.1832   -4.0586    0.0000 C   0  0  0  0  0  0  0  0  0  0  0  0
   -3.1474   -5.2077    0.0000 O   0  0  0  0  0  0  0  0  0  0  0  0
    4.2716    2.0377    0.0000 H   0  0  0  0  0  0  0  0  0  0  0  0
    3.8204   -0.5209    0.0000 H   0  0  0  0  0  0  0  0  0  0  0  0
    1.3172    2.5586    0.0000 H   0  0  0  0  0  0  0  0  0  0  0  0
    2.0796   -0.8816    0.0000 H   0  0  0  0  0  0  0  0  0  0  0  0
    0.0800    2.1595    0.0000 H   0  0  0  0  0  0  0  0  0  0  0  0
   -1.6498    2.4877    0.0000 H   0  0  0  0  0  0  0  0  0  0  0  0
   -2.2655   -0.1514    0.0000 H   0  0  0  0  0  0  0  0  0  0  0  0
   -3.1270    2.7482    0.0000 H   0  0  0  0  0  0  0  0  0  0  0  0
   -3.6479   -0.2063    0.0000 H   0  0  0  0  0  0  0  0  0  0  0  0
   -5.1251    0.0542    0.0000 H   0  0  0  0  0  0  0  0  0  0  0  0
   -4.6042    3.0086    0.0000 H   0  0  0  0  0  0  0  0  0  0  0  0
   -6.0814    3.2691    0.0000 H   0  0  0  0  0  0  0  0  0  0  0  0
   -6.6023    0.3147    0.0000 H   0  0  0  0  0  0  0  0  0  0  0  0
   -9.2963    2.3128    0.0000 H   0  0  0  0  0  0  0  0  0  0  0  0
   -8.0795    0.5751    0.0000 H   0  0  0  0  0  0  0  0  0  0  0  0
   -7.5586    3.5296    0.0000 H   0  0  0  0  0  0  0  0  0  0  0  0
   -1.6296   -0.9610    0.0000 H   0  0  0  0  0  0  0  0  0  0  0  0
    2.5214   -3.0481    0.0000 H   0  0  0  0  0  0  0  0  0  0  0  0
   -2.3161   -1.8866    0.0000 H   0  0  0  0  0  0  0  0  0  0  0  0
   -3.3323   -3.0944    0.0000 H   0  0  0  0  0  0  0  0  0  0  0  0
   -1.0341   -5.0228    0.0000 H   0  0  0  0  0  0  0  0  0  0  0  0
   -2.6344   -6.6172    0.0000 H   0  0  0  0  0  0  0  0  0  0  0  0
  1  2  2  3
  2  3  1  0
  3  4  1  0
  4  5  1  0
  5  6  1  0
  6  7  1  0
  7  8  1  0
  8  9  1  0
  4 10  1  0
 10 11  1  0
 11 12  1  0
 11 13  1  0
 13 14  1  0
 14 15  1  0
 15 16  1  0
 10  3  1  0
 14 11  1  0
  1 17  1  0
  1 18  1  0
  2 19  1  0
  3 20  1  0
  4 21  1  0
  5 22  1  0
  5 23  1  0
  6 24  1  0
  6 25  1  0
  7 26  1  0
  7 27  1  0
  8 28  1  0
  8 29  1  0
  9 30  1  0
  9 31  1  0
  9 32  1  0
 10 33  1  0
 12 34  1  0
 14 35  1  0
 15 36  1  0
 15 37  1  0
 16 38  1  0
M  END
$$$$
