
     RDKit          2D

102106  0  0  0  0  0  0  0  0999 V2000
   -9.2646   13.3192    0.0000 C   0  0  0  0  0  0  0  0  0  0  0  0
   -7.8551   13.8322    0.0000 C   0  0  0  0  0  0  0  0  0  0  0  0
   -6.4456   14.3452    0.0000 C   0  0  0  0  0  0  0  0  0  0  0  0
   -5.0360   14.8583    0.0000 C   0  0  0  0  0  0  0  0  0  0  0  0
   -4.2860   13.5592    0.0000 C   0  0  0  0  0  0  0  0  0  0  0  0
   -3.1370   12.5950    0.0000 C   0  0  0  0  0  0  0  0  0  0  0  0
   -1.9879   11.6309    0.0000 C   0  0  0  0  0  0  0  0  0  0  0  0
   -0.8388   10.6667    0.0000 C   0  0  0  0  0  0  0  0  0  0  0  0
    0.5707   11.1797    0.0000 C   0  0  0  0  0  0  0  0  0  0  0  0
    1.7198   10.2155    0.0000 C   0  0  0  0  0  0  0  0  0  0  0  0
    2.8688    9.2513    0.0000 C   0  0  0  0  0  0  0  0  0  0  0  0
    4.0179    8.2872    0.0000 C   0  0  0  0  0  0  0  0  0  0  0  0
    5.1670    7.3230    0.0000 C   0  0  0  0  0  0  0  0  0  0  0  0
    4.9065    5.8458    0.0000 C   0  0  0  0  0  0  0  0  0  0  0  0
    6.0556    4.8816    0.0000 C   0  0  0  0  0  0  0  0  0  0  0  0
    6.8056    3.5825    0.0000 C   0  0  0  0  0  0  0  0  0  0  0  0
    5.3056    3.5825    0.0000 C   0  0  0  0  0  0  0  0  0  0  0  0
    5.0451    2.1053    0.0000 C   0  0  0  0  0  0  0  0  0  0  0  0
    4.7846    0.6281    0.0000 C   0  0  0  0  0  0  0  0  0  0  0  0
    4.5242   -0.8491    0.0000 C   0  0  0  0  0  0  0  0  0  0  0  0
    3.3074    0.8886    0.0000 C   0  0  0  0  0  0  0  0  0  0  0  0
    1.8302    1.1491    0.0000 O   0  0  0  0  0  0  0  0  0  0  0  0
    0.8660    0.0000    0.0000 C   0  0  0  0  0  0  0  0  0  0  0  0
   -0.4330    0.7500    0.0000 C   0  0  0  0  0  0  0  0  0  0  0  0
   -1.7321    1.5000    0.0000 C   0  0  0  0  0  0  0  0  0  0  0  0
   -1.7321    3.0000    0.0000 C   0  0  0  0  0  0  0  0  0  0  0  0
   -1.7321    4.5000    0.0000 C   0  0  0  0  0  0  0  0  0  0  0  0
   -1.7321    6.0000    0.0000 C   0  0  0  0  0  0  0  0  0  0  0  0
   -3.0311    6.7500    0.0000 O   0  0  0  0  0  0  0  0  0  0  0  0
   -0.4330    6.7500    0.0000 C   0  0  0  0  0  0  0  0  0  0  0  0
    0.8660    7.5000    0.0000 O   0  0  0  0  0  0  0  0  0  0  0  0
   -3.0311    0.7500    0.0000 C   0  0  0  0  0  0  0  0  0  0  0  0
   -3.0311   -0.7500    0.0000 C   0  0  0  0  0  0  0  0  0  0  0  0
   -1.7321   -1.5000    0.0000 C   0  0  0  0  0  0  0  0  0  0  0  0
   -0.9821   -2.7990    0.0000 C   0  0  0  0  0  0  0  0  0  0  0  0
    0.3170   -2.0490    0.0000 C   0  0  0  0  0  0  0  0  0  0  0  0
    1.6160   -1.2990    0.0000 C   0  0  0  0  0  0  0  0  0  0  0  0
   -0.4330   -0.7500    0.0000 C   0  0  0  0  0  0  0  0  0  0  0  0
   -3.5360   14.8583    0.0000 C   0  0  0  0  0  0  0  0  0  0  0  0
   -3.2756   16.3355    0.0000 C   0  0  0  0  0  0  0  0  0  0  0  0
   -3.0151   17.8127    0.0000 C   0  0  0  0  0  0  0  0  0  0  0  0
   -2.7546   19.2899    0.0000 C   0  0  0  0  0  0  0  0  0  0  0  0
  -10.6742   12.8061    0.0000 H   0  0  0  0  0  0  0  0  0  0  0  0
   -8.7516   11.9096    0.0000 H   0  0  0  0  0  0  0  0  0  0  0  0
   -9.7777   14.7287    0.0000 H   0  0  0  0  0  0  0  0  0  0  0  0
   -7.3421   12.4227    0.0000 H   0  0  0  0  0  0  0  0  0  0  0  0
   -8.3681   15.2417    0.0000 H   0  0  0  0  0  0  0  0  0  0  0  0
   -6.1419   13.0298    0.0000 H   0  0  0  0  0  0  0  0  0  0  0  0
   -6.9586   15.7548    0.0000 H   0  0  0  0  0  0  0  0  0  0  0  0
   -5.4746   16.2927    0.0000 H   0  0  0  0  0  0  0  0  0  0  0  0
   -5.2067   12.5719    0.0000 H   0  0  0  0  0  0  0  0  0  0  0  0
   -4.1011   11.4460    0.0000 H   0  0  0  0  0  0  0  0  0  0  0  0
   -2.0399   13.6180    0.0000 H   0  0  0  0  0  0  0  0  0  0  0  0
   -2.9521   10.4818    0.0000 H   0  0  0  0  0  0  0  0  0  0  0  0
   -1.0237   12.7799    0.0000 H   0  0  0  0  0  0  0  0  0  0  0  0
   -1.0993    9.1895    0.0000 H   0  0  0  0  0  0  0  0  0  0  0  0
    0.8312   12.6569    0.0000 H   0  0  0  0  0  0  0  0  0  0  0  0
    0.7556    9.0665    0.0000 H   0  0  0  0  0  0  0  0  0  0  0  0
    2.6840   11.3646    0.0000 H   0  0  0  0  0  0  0  0  0  0  0  0
    1.9047    8.1023    0.0000 H   0  0  0  0  0  0  0  0  0  0  0  0
    3.8330   10.4004    0.0000 H   0  0  0  0  0  0  0  0  0  0  0  0
    4.9821    9.4362    0.0000 H   0  0  0  0  0  0  0  0  0  0  0  0
    3.0537    7.1381    0.0000 H   0  0  0  0  0  0  0  0  0  0  0  0
    6.5765    7.8360    0.0000 H   0  0  0  0  0  0  0  0  0  0  0  0
    3.4970    5.3327    0.0000 H   0  0  0  0  0  0  0  0  0  0  0  0
    7.2046    5.8458    0.0000 H   0  0  0  0  0  0  0  0  0  0  0  0
    8.2151    4.0956    0.0000 H   0  0  0  0  0  0  0  0  0  0  0  0
    7.2003    2.2915    0.0000 H   0  0  0  0  0  0  0  0  0  0  0  0
    3.8960    4.0956    0.0000 H   0  0  0  0  0  0  0  0  0  0  0  0
    3.6107    2.5439    0.0000 H   0  0  0  0  0  0  0  0  0  0  0  0
    6.3361    1.7106    0.0000 H   0  0  0  0  0  0  0  0  0  0  0  0
    6.2618    0.3676    0.0000 H   0  0  0  0  0  0  0  0  0  0  0  0
    4.2637   -2.3263    0.0000 H   0  0  0  0  0  0  0  0  0  0  0  0
    5.2865   -1.0822    0.0000 H   0  0  0  0  0  0  0  0  0  0  0  0
    5.3202   -0.8908    0.0000 H   0  0  0  0  0  0  0  0  0  0  0  0
    3.2290   -0.6094    0.0000 H   0  0  0  0  0  0  0  0  0  0  0  0
    3.3859    2.3865    0.0000 H   0  0  0  0  0  0  0  0  0  0  0  0
    2.0796   -0.8816    0.0000 H   0  0  0  0  0  0  0  0  0  0  0  0
    0.3170    2.0490    0.0000 H   0  0  0  0  0  0  0  0  0  0  0  0
   -0.2321    3.0000    0.0000 H   0  0  0  0  0  0  0  0  0  0  0  0
   -3.2321    3.0000    0.0000 H   0  0  0  0  0  0  0  0  0  0  0  0
   -0.2321    4.5000    0.0000 H   0  0  0  0  0  0  0  0  0  0  0  0
   -3.2321    4.5000    0.0000 H   0  0  0  0  0  0  0  0  0  0  0  0
   -3.0311    8.2500    0.0000 H   0  0  0  0  0  0  0  0  0  0  0  0
   -4.3301    1.5000    0.0000 H   0  0  0  0  0  0  0  0  0  0  0  0
   -3.7121   -2.0865    0.0000 H   0  0  0  0  0  0  0  0  0  0  0  0
   -4.5083   -0.4895    0.0000 H   0  0  0  0  0  0  0  0  0  0  0  0
   -2.6555   -2.6820    0.0000 H   0  0  0  0  0  0  0  0  0  0  0  0
   -0.2321   -4.0981    0.0000 H   0  0  0  0  0  0  0  0  0  0  0  0
   -2.2811   -3.5490    0.0000 H   0  0  0  0  0  0  0  0  0  0  0  0
    1.0670   -3.3481    0.0000 H   0  0  0  0  0  0  0  0  0  0  0  0
    2.9968   -0.7130    0.0000 H   0  0  0  0  0  0  0  0  0  0  0  0
    2.3660   -2.5981    0.0000 H   0  0  0  0  0  0  0  0  0  0  0  0
    1.2026    0.1429    0.0000 H   0  0  0  0  0  0  0  0  0  0  0  0
   -2.0745   14.5209    0.0000 H   0  0  0  0  0  0  0  0  0  0  0  0
   -1.7983   16.0750    0.0000 H   0  0  0  0  0  0  0  0  0  0  0  0
   -4.7100   16.7741    0.0000 H   0  0  0  0  0  0  0  0  0  0  0  0
   -1.5379   17.5522    0.0000 H   0  0  0  0  0  0  0  0  0  0  0  0
   -4.4923   18.0731    0.0000 H   0  0  0  0  0  0  0  0  0  0  0  0
   -2.4941   20.7671    0.0000 H   0  0  0  0  0  0  0  0  0  0  0  0
   -4.2318   19.5504    0.0000 H   0  0  0  0  0  0  0  0  0  0  0  0
   -1.2774   19.0294    0.0000 H   0  0  0  0  0  0  0  0  0  0  0  0
  1  2  1  0
  2  3  1  0
  3  4  1  0
  4  5  1  0
  5  6  1  0
  6  7  1  0
  7  8  1  0
  8  9  2  3
  9 10  1  0
 10 11  1  0
 11 12  1  0
 12 13  1  0
 13 14  2  3
 14 15  1  0
 15 16  1  0
 16 17  1  0
 17 18  1  0
 18 19  1  0
 19 20  1  0
 19 21  1  0
 21 22  1  0
 22 23  1  0
 23 24  1  0
 24 25  1  0
 25 26  1  0
 26 27  1  0
 27 28  1  0
 28 29  1  0
 28 30  2  0
 30 31  2  0
 25 32  2  0
 32 33  1  0
 33 34  1  0
 34 35  1  0
 35 36  1  0
 36 37  1  0
 38 36  1  1
  5 39  1  0
 39 40  1  0
 40 41  1  0
 41 42  1  0
 39  4  1  0
 17 15  1  0
 38 23  1  0
 38 24  1  0
 38 34  1  0
  1 43  1  0
  1 44  1  0
  1 45  1  0
  2 46  1  0
  2 47  1  0
  3 48  1  0
  3 49  1  0
  4 50  1  6
  5 51  1  6
  6 52  1  0
  6 53  1  0
  7 54  1  0
  7 55  1  0
  8 56  1  0
  9 57  1  0
 10 58  1  0
 10 59  1  0
 11 60  1  0
 11 61  1  0
 12 62  1  0
 12 63  1  0
 13 64  1  0
 14 65  1  0
 15 66  1  6
 16 67  1  0
 16 68  1  0
 17 69  1  1
 18 70  1  0
 18 71  1  0
 19 72  1  6
 20 73  1  0
 20 74  1  0
 20 75  1  0
 21 76  1  0
 21 77  1  0
 23 78  1  6
 24 79  1  1
 26 80  1  0
 26 81  1  0
 27 82  1  0
 27 83  1  0
 29 84  1  0
 32 85  1  0
 33 86  1  0
 33 87  1  0
 34 88  1  1
 35 89  1  0
 35 90  1  0
 36 91  1  6
 37 92  1  0
 37 93  1  0
 37 94  1  0
 39 95  1  6
 40 96  1  0
 40 97  1  0
 41 98  1  0
 41 99  1  0
 42100  1  0
 42101  1  0
 42102  1  0
M  END
$$$$
