
     RDKit          2D

 61 64  0  0  0  0  0  0  0  0999 V2000
   -3.3874   -1.2709    0.0000 C   0  0  0  0  0  0  0  0  0  0  0  0
   -1.9102   -1.0105    0.0000 C   0  0  0  0  0  0  0  0  0  0  0  0
   -0.4330   -0.7500    0.0000 C   0  0  0  0  0  0  0  0  0  0  0  0
   -0.4330    0.7500    0.0000 N   0  0  0  0  0  0  0  0  0  0  0  0
   -1.1830    2.0490    0.0000 C   0  0  0  0  0  0  0  0  0  0  0  0
   -1.9330    3.3481    0.0000 C   0  0  0  0  0  0  0  0  0  0  0  0
   -0.7839    4.3123    0.0000 C   0  0  0  0  0  0  0  0  0  0  0  0
    0.3651    5.2764    0.0000 C   0  0  0  0  0  0  0  0  0  0  0  0
    1.5142    6.2406    0.0000 C   0  0  0  0  0  0  0  0  0  0  0  0
    1.3293    4.1274    0.0000 O   0  0  0  0  0  0  0  0  0  0  0  0
   -0.5991    6.4255    0.0000 C   0  0  0  0  0  0  0  0  0  0  0  0
   -1.5632    7.5746    0.0000 C   0  0  0  0  0  0  0  0  0  0  0  0
   -2.5274    8.7236    0.0000 C   0  0  0  0  0  0  0  0  0  0  0  0
   -0.4142    8.5388    0.0000 C   0  0  0  0  0  0  0  0  0  0  0  0
    0.9102    9.2430    0.0000 C   0  0  0  0  0  0  0  0  0  0  0  0
    0.6498   10.7202    0.0000 C   0  0  0  0  0  0  0  0  0  0  0  0
   -0.8356   10.9289    0.0000 C   0  0  0  0  0  0  0  0  0  0  0  0
   -1.4932    9.5807    0.0000 C   0  0  0  0  0  0  0  0  0  0  0  0
   -2.7653   10.3756    0.0000 C   0  0  0  0  0  0  0  0  0  0  0  0
   -3.0821    4.3123    0.0000 C   0  0  0  0  0  0  0  0  0  0  0  0
   -3.3426    2.8350    0.0000 O   0  0  0  0  0  0  0  0  0  0  0  0
    0.8660    0.0000    0.0000 C   0  0  0  0  0  0  0  0  0  0  0  0
    2.1651   -0.7500    0.0000 C   0  0  0  0  0  0  0  0  0  0  0  0
    2.1651    0.7500    0.0000 C   0  0  0  0  0  0  0  0  0  0  0  0
   -4.8646   -1.5314    0.0000 H   0  0  0  0  0  0  0  0  0  0  0  0
   -3.6479    0.2063    0.0000 H   0  0  0  0  0  0  0  0  0  0  0  0
   -3.1270   -2.7482    0.0000 H   0  0  0  0  0  0  0  0  0  0  0  0
   -2.3488    0.4240    0.0000 H   0  0  0  0  0  0  0  0  0  0  0  0
   -1.6498   -2.4877    0.0000 H   0  0  0  0  0  0  0  0  0  0  0  0
    0.0800   -2.1595    0.0000 H   0  0  0  0  0  0  0  0  0  0  0  0
   -2.5638    1.4630    0.0000 H   0  0  0  0  0  0  0  0  0  0  0  0
   -0.0646    2.5237    0.0000 H   0  0  0  0  0  0  0  0  0  0  0  0
   -1.4165    5.0662    0.0000 H   0  0  0  0  0  0  0  0  0  0  0  0
    0.1047    3.4837    0.0000 H   0  0  0  0  0  0  0  0  0  0  0  0
    2.6633    7.2048    0.0000 H   0  0  0  0  0  0  0  0  0  0  0  0
    1.0318    6.9835    0.0000 H   0  0  0  0  0  0  0  0  0  0  0  0
    2.6112    5.2177    0.0000 H   0  0  0  0  0  0  0  0  0  0  0  0
    2.8272    4.2058    0.0000 H   0  0  0  0  0  0  0  0  0  0  0  0
    0.0050    7.0733    0.0000 H   0  0  0  0  0  0  0  0  0  0  0  0
   -1.4836    5.9941    0.0000 H   0  0  0  0  0  0  0  0  0  0  0  0
   -2.7123    6.6104    0.0000 H   0  0  0  0  0  0  0  0  0  0  0  0
   -3.6245    9.7466    0.0000 H   0  0  0  0  0  0  0  0  0  0  0  0
   -3.3528    8.1877    0.0000 H   0  0  0  0  0  0  0  0  0  0  0  0
   -3.1986    8.0039    0.0000 H   0  0  0  0  0  0  0  0  0  0  0  0
   -1.7133    9.2887    0.0000 H   0  0  0  0  0  0  0  0  0  0  0  0
    1.4722    7.8522    0.0000 H   0  0  0  0  0  0  0  0  0  0  0  0
    2.3521    9.6564    0.0000 H   0  0  0  0  0  0  0  0  0  0  0  0
    2.1461   10.8248    0.0000 H   0  0  0  0  0  0  0  0  0  0  0  0
    0.7021   12.2193    0.0000 H   0  0  0  0  0  0  0  0  0  0  0  0
   -0.4727   12.3844    0.0000 H   0  0  0  0  0  0  0  0  0  0  0  0
   -2.1721   11.6100    0.0000 H   0  0  0  0  0  0  0  0  0  0  0  0
   -2.6753    8.6573    0.0000 H   0  0  0  0  0  0  0  0  0  0  0  0
   -4.0373   11.1705    0.0000 H   0  0  0  0  0  0  0  0  0  0  0  0
   -3.7093    9.2099    0.0000 H   0  0  0  0  0  0  0  0  0  0  0  0
   -2.1314   11.7351    0.0000 H   0  0  0  0  0  0  0  0  0  0  0  0
   -2.6687    5.7542    0.0000 H   0  0  0  0  0  0  0  0  0  0  0  0
   -4.4916    4.8253    0.0000 H   0  0  0  0  0  0  0  0  0  0  0  0
    1.6520   -2.1595    0.0000 H   0  0  0  0  0  0  0  0  0  0  0  0
    3.6423   -1.0105    0.0000 H   0  0  0  0  0  0  0  0  0  0  0  0
    3.6423    1.0105    0.0000 H   0  0  0  0  0  0  0  0  0  0  0  0
    1.6520    2.1595    0.0000 H   0  0  0  0  0  0  0  0  0  0  0  0
  1  2  1  0
  2  3  1  0
  3  4  1  0
  4  5  1  0
  5  6  1  0
  6  7  1  0
  7  8  1  0
  8  9  1  0
  8 10  1  0
  8 11  1  0
 11 12  1  0
 12 13  1  0
 12 14  1  0
 14 15  1  0
 15 16  1  0
 16 17  1  0
 17 18  1  0
 18 19  1  0
  6 20  1  0
 20 21  1  0
  4 22  1  0
 22 23  1  0
 23 24  1  0
 22  3  1  0
 21  6  1  0
 24 22  1  0
 18 14  1  0
  1 25  1  0
  1 26  1  0
  1 27  1  0
  2 28  1  0
  2 29  1  0
  3 30  1  0
  5 31  1  0
  5 32  1  0
  7 33  1  0
  7 34  1  0
  9 35  1  0
  9 36  1  0
  9 37  1  0
 10 38  1  0
 11 39  1  0
 11 40  1  0
 12 41  1  0
 13 42  1  0
 13 43  1  0
 13 44  1  0
 14 45  1  0
 15 46  1  0
 15 47  1  0
 16 48  1  0
 16 49  1  0
 17 50  1  0
 17 51  1  0
 18 52  1  0
 19 53  1  0
 19 54  1  0
 19 55  1  0
 20 56  1  0
 20 57  1  0
 23 58  1  0
 23 59  1  0
 24 60  1  0
 24 61  1  0
M  END
$$$$
