
     RDKit          2D

 25 26  0  0  0  0  0  0  0  0999 V2000
    7.2260    1.5167    0.0000 O   0  0  0  0  0  0  0  0  0  0  0  0
    6.2618    0.3676    0.0000 O   0  0  0  0  0  0  0  0  0  0  0  0
    4.7846    0.6281    0.0000 C   0  0  0  0  0  0  0  0  0  0  0  0
    3.3074    0.8886    0.0000 C   0  0  0  0  0  0  0  0  0  0  0  0
    1.8302    1.1491    0.0000 N   0  0  0  0  0  0  0  0  0  0  0  0
    0.8660    0.0000    0.0000 C   0  0  0  0  0  0  0  0  0  0  0  0
   -0.4330    0.7500    0.0000 O   0  0  0  0  0  0  0  0  0  0  0  0
   -0.4330   -0.7500    0.0000 C   0  0  0  0  0  0  0  0  0  0  0  0
    0.0800   -2.1595    0.0000 C   0  0  0  0  0  0  0  0  0  0  0  0
    0.0800   -3.6595    0.0000 C   0  0  0  0  0  0  0  0  0  0  0  0
   -1.2190   -2.9095    0.0000 C   0  0  0  0  0  0  0  0  0  0  0  0
   -2.1832   -4.0586    0.0000 O   0  0  0  0  0  0  0  0  0  0  0  0
    8.7032    1.2562    0.0000 H   0  0  0  0  0  0  0  0  0  0  0  0
    4.5242   -0.8491    0.0000 H   0  0  0  0  0  0  0  0  0  0  0  0
    5.0451    2.1053    0.0000 H   0  0  0  0  0  0  0  0  0  0  0  0
    3.0469   -0.5886    0.0000 H   0  0  0  0  0  0  0  0  0  0  0  0
    3.5679    2.3658    0.0000 H   0  0  0  0  0  0  0  0  0  0  0  0
    1.3172    2.5586    0.0000 H   0  0  0  0  0  0  0  0  0  0  0  0
    1.9631   -1.0230    0.0000 H   0  0  0  0  0  0  0  0  0  0  0  0
   -1.9310   -0.8285    0.0000 H   0  0  0  0  0  0  0  0  0  0  0  0
    1.5780   -2.0811    0.0000 H   0  0  0  0  0  0  0  0  0  0  0  0
    1.5572   -3.9200    0.0000 H   0  0  0  0  0  0  0  0  0  0  0  0
   -0.4330   -5.0691    0.0000 H   0  0  0  0  0  0  0  0  0  0  0  0
   -2.3161   -1.8866    0.0000 H   0  0  0  0  0  0  0  0  0  0  0  0
   -3.6604   -3.7981    0.0000 H   0  0  0  0  0  0  0  0  0  0  0  0
  1  2  1  0
  2  3  1  0
  3  4  1  0
  4  5  1  0
  5  6  1  0
  6  7  1  0
  7  8  1  0
  8  9  1  0
  9 10  1  0
 10 11  1  0
 11 12  1  0
  8  6  1  0
 11  9  1  0
  1 13  1  0
  3 14  1  0
  3 15  1  0
  4 16  1  0
  4 17  1  0
  5 18  1  0
  6 19  1  0
  8 20  1  0
  9 21  1  0
 10 22  1  0
 10 23  1  0
 11 24  1  0
 12 25  1  0
M  END
$$$$
