
     RDKit          2D

 85 96  0  0  0  0  0  0  0  0999 V2000
   -7.8443   -0.8521    0.0000 C   0  0  0  0  0  0  0  0  0  0  0  0
   -6.6098    0.0000    0.0000 C   0  0  0  0  0  0  0  0  0  0  0  0
   -6.2508    1.4564    0.0000 C   0  0  0  0  0  0  0  0  0  0  0  0
   -7.1814    2.8418    0.0000 N   0  0  0  0  0  0  0  0  0  0  0  0
   -7.5667    4.2914    0.0000 C   0  0  0  0  0  0  0  0  0  0  0  0
   -6.8141    5.5890    0.0000 C   0  0  0  0  0  0  0  0  0  0  0  0
   -5.3644    5.9743    0.0000 C   0  0  0  0  0  0  0  0  0  0  0  0
   -4.0669    5.2217    0.0000 C   0  0  0  0  0  0  0  0  0  0  0  0
   -2.9050    4.2730    0.0000 C   0  0  0  0  0  0  0  0  0  0  0  0
   -3.8536    3.1111    0.0000 C   0  0  0  0  0  0  0  0  0  0  0  0
   -2.3646    2.9303    0.0000 C   0  0  0  0  0  0  0  0  0  0  0  0
   -1.1301    2.0782    0.0000 C   0  0  0  0  0  0  0  0  0  0  0  0
   -0.4330    0.7500    0.0000 C   0  0  0  0  0  0  0  0  0  0  0  0
    0.8660    0.0000    0.0000 C   0  0  0  0  0  0  0  0  0  0  0  0
   -0.4330   -0.7500    0.0000 C   0  0  0  0  0  0  0  0  0  0  0  0
   -1.1301   -2.0782    0.0000 C   0  0  0  0  0  0  0  0  0  0  0  0
   -0.0073   -3.0729    0.0000 C   0  0  0  0  0  0  0  0  0  0  0  0
    0.9874   -1.9501    0.0000 C   0  0  0  0  0  0  0  0  0  0  0  0
    1.1154   -4.0676    0.0000 O   0  0  0  0  0  0  0  0  0  0  0  0
   -2.3646   -2.9303    0.0000 C   0  0  0  0  0  0  0  0  0  0  0  0
   -1.4635   -4.1294    0.0000 N   0  0  0  0  0  0  0  0  0  0  0  0
   -2.0514   -5.5094    0.0000 O   0  0  0  0  0  0  0  0  0  0  0  0
   -3.5405   -5.6902    0.0000 C   0  0  0  0  0  0  0  0  0  0  0  0
   -3.1038   -7.1253    0.0000 C   0  0  0  0  0  0  0  0  0  0  0  0
   -4.4416   -4.4911    0.0000 C   0  0  0  0  0  0  0  0  0  0  0  0
   -3.0704   -5.0993    0.0000 C   0  0  0  0  0  0  0  0  0  0  0  0
   -2.1115   -5.1418    0.0000 N   0  0  0  0  0  0  0  0  0  0  0  0
   -1.8581   -4.2159    0.0000 C   0  0  0  0  0  0  0  0  0  0  0  0
   -3.8536   -3.1111    0.0000 C   0  0  0  0  0  0  0  0  0  0  0  0
   -5.2562   -2.5792    0.0000 C   0  0  0  0  0  0  0  0  0  0  0  0
   -5.7312   -4.0020    0.0000 C   0  0  0  0  0  0  0  0  0  0  0  0
   -6.7258   -2.8792    0.0000 C   0  0  0  0  0  0  0  0  0  0  0  0
   -6.2508   -1.4564    0.0000 C   0  0  0  0  0  0  0  0  0  0  0  0
   -5.2562    2.5792    0.0000 C   0  0  0  0  0  0  0  0  0  0  0  0
   -5.0155    4.0598    0.0000 C   0  0  0  0  0  0  0  0  0  0  0  0
   -4.3373    6.6971    0.0000 C   0  0  0  0  0  0  0  0  0  0  0  0
   -5.8240    6.8959    0.0000 C   0  0  0  0  0  0  0  0  0  0  0  0
   -5.0849    5.3967    0.0000 C   0  0  0  0  0  0  0  0  0  0  0  0
   -8.6964    0.3824    0.0000 H   0  0  0  0  0  0  0  0  0  0  0  0
   -6.9922   -2.0866    0.0000 H   0  0  0  0  0  0  0  0  0  0  0  0
   -9.0788   -1.7042    0.0000 H   0  0  0  0  0  0  0  0  0  0  0  0
   -7.8443    0.8521    0.0000 H   0  0  0  0  0  0  0  0  0  0  0  0
   -7.7406    1.6311    0.0000 H   0  0  0  0  0  0  0  0  0  0  0  0
   -8.4754    2.0831    0.0000 H   0  0  0  0  0  0  0  0  0  0  0  0
   -8.6252    5.3542    0.0000 H   0  0  0  0  0  0  0  0  0  0  0  0
   -8.8672    3.5440    0.0000 H   0  0  0  0  0  0  0  0  0  0  0  0
   -4.5893    7.2585    0.0000 H   0  0  0  0  0  0  0  0  0  0  0  0
   -5.7749    7.4170    0.0000 H   0  0  0  0  0  0  0  0  0  0  0  0
   -1.4802    3.8038    0.0000 H   0  0  0  0  0  0  0  0  0  0  0  0
   -1.9563    5.4349    0.0000 H   0  0  0  0  0  0  0  0  0  0  0  0
   -1.1301    3.7824    0.0000 H   0  0  0  0  0  0  0  0  0  0  0  0
   -2.3605    4.4303    0.0000 H   0  0  0  0  0  0  0  0  0  0  0  0
    0.3258    2.4392    0.0000 H   0  0  0  0  0  0  0  0  0  0  0  0
   -0.5963    3.4800    0.0000 H   0  0  0  0  0  0  0  0  0  0  0  0
    0.7674    1.6495    0.0000 H   0  0  0  0  0  0  0  0  0  0  0  0
    1.8302    1.1491    0.0000 H   0  0  0  0  0  0  0  0  0  0  0  0
    1.9631   -1.0230    0.0000 H   0  0  0  0  0  0  0  0  0  0  0  0
    0.8681   -1.4964    0.0000 H   0  0  0  0  0  0  0  0  0  0  0  0
   -0.5335   -4.4776    0.0000 H   0  0  0  0  0  0  0  0  0  0  0  0
    2.2230   -2.8005    0.0000 H   0  0  0  0  0  0  0  0  0  0  0  0
    0.1386   -0.7133    0.0000 H   0  0  0  0  0  0  0  0  0  0  0  0
    2.1115   -0.9570    0.0000 H   0  0  0  0  0  0  0  0  0  0  0  0
    2.5855   -3.7695    0.0000 H   0  0  0  0  0  0  0  0  0  0  0  0
   -0.8840   -3.1709    0.0000 H   0  0  0  0  0  0  0  0  0  0  0  0
   -0.0075   -3.7685    0.0000 H   0  0  0  0  0  0  0  0  0  0  0  0
   -4.8779   -6.3694    0.0000 H   0  0  0  0  0  0  0  0  0  0  0  0
   -4.5389   -7.5619    0.0000 H   0  0  0  0  0  0  0  0  0  0  0  0
   -1.6263   -6.8668    0.0000 H   0  0  0  0  0  0  0  0  0  0  0  0
   -2.6672   -8.5603    0.0000 H   0  0  0  0  0  0  0  0  0  0  0  0
   -5.7669   -5.1936    0.0000 H   0  0  0  0  0  0  0  0  0  0  0  0
   -3.3288   -6.5769    0.0000 H   0  0  0  0  0  0  0  0  0  0  0  0
   -0.6748   -6.8031    0.0000 H   0  0  0  0  0  0  0  0  0  0  0  0
   -0.3724   -4.4228    0.0000 H   0  0  0  0  0  0  0  0  0  0  0  0
   -5.0503   -4.0155    0.0000 H   0  0  0  0  0  0  0  0  0  0  0  0
   -4.6246   -5.0147    0.0000 H   0  0  0  0  0  0  0  0  0  0  0  0
   -6.8004   -5.0540    0.0000 H   0  0  0  0  0  0  0  0  0  0  0  0
   -8.1955   -3.1793    0.0000 H   0  0  0  0  0  0  0  0  0  0  0  0
   -7.7197   -1.7605    0.0000 H   0  0  0  0  0  0  0  0  0  0  0  0
   -6.4155    3.5310    0.0000 H   0  0  0  0  0  0  0  0  0  0  0  0
   -6.3834    4.6754    0.0000 H   0  0  0  0  0  0  0  0  0  0  0  0
   -3.3025    7.7831    0.0000 H   0  0  0  0  0  0  0  0  0  0  0  0
   -5.4709    8.3537    0.0000 H   0  0  0  0  0  0  0  0  0  0  0  0
   -7.2370    7.3994    0.0000 H   0  0  0  0  0  0  0  0  0  0  0  0
   -3.9013    4.4753    0.0000 H   0  0  0  0  0  0  0  0  0  0  0  0
   -5.8775    4.1232    0.0000 H   0  0  0  0  0  0  0  0  0  0  0  0
  1  2  1  0
  2  3  1  0
  3  4  1  0
  4  5  1  0
  6  5  1  1
  6  7  1  0
  7  8  1  0
  8  9  1  1
 10  9  1  6
 10 11  1  0
 11 12  1  0
 12 13  1  0
 13 14  1  0
 14 15  1  0
 15 16  1  0
 16 17  1  1
 17 18  1  0
 17 19  1  0
 16 20  1  0
 20 21  1  0
 21 22  1  0
 22 23  1  0
 23 24  1  0
 23 25  1  0
 25 26  1  0
 26 27  1  0
 27 28  1  0
 25 29  1  0
 29 30  1  0
 30 31  1  6
 31 32  1  0
 32 33  1  0
 10 34  1  0
 34 35  1  0
  8 36  1  0
 36 37  1  0
 36 38  1  0
 33  2  1  0
 34  3  1  0
 37  6  1  0
 38  6  1  0
 35  8  1  0
 35 10  1  0
 15 13  1  0
 28 16  1  0
 32 30  1  0
 29 20  1  0
 33 30  1  0
 28 26  1  0
  1 39  1  0
  1 40  1  0
  1 41  1  0
  2 42  1  1
  3 43  1  1
  4 44  1  0
  5 45  1  0
  5 46  1  0
  7 47  1  0
  7 48  1  0
  9 49  1  0
  9 50  1  0
 11 51  1  0
 11 52  1  0
 12 53  1  0
 12 54  1  0
 13 55  1  6
 14 56  1  0
 14 57  1  0
 15 58  1  6
 17 59  1  6
 18 60  1  0
 18 61  1  0
 18 62  1  0
 19 63  1  0
 20 64  1  6
 21 65  1  0
 23 66  1  1
 24 67  1  0
 24 68  1  0
 24 69  1  0
 25 70  1  1
 26 71  1  1
 27 72  1  0
 28 73  1  6
 29 74  1  1
 31 75  1  0
 31 76  1  0
 32 77  1  6
 33 78  1  1
 34 79  1  1
 35 80  1  1
 36 81  1  6
 37 82  1  0
 37 83  1  0
 38 84  1  0
 38 85  1  0
M  END
$$$$
