
     RDKit          2D

 35 35  0  0  0  0  0  0  0  0999 V2000
    2.0965    5.8209    0.0000 C   0  0  0  0  0  0  0  0  0  0  0  0
    1.1323    4.6719    0.0000 N   0  0  0  0  0  0  0  0  0  0  0  0
    1.6453    3.2623    0.0000 C   0  0  0  0  0  0  0  0  0  0  0  0
    0.6811    2.1132    0.0000 C   0  0  0  0  0  0  0  0  0  0  0  0
   -0.2830    0.9642    0.0000 C   0  0  0  0  0  0  0  0  0  0  0  0
    1.8302    1.1491    0.0000 C   0  0  0  0  0  0  0  0  0  0  0  0
    2.9793    0.1849    0.0000 C   0  0  0  0  0  0  0  0  0  0  0  0
    4.1283   -0.7793    0.0000 C   0  0  0  0  0  0  0  0  0  0  0  0
    3.8679   -2.2565    0.0000 O   0  0  0  0  0  0  0  0  0  0  0  0
    5.5379   -0.2663    0.0000 C   0  0  0  0  0  0  0  0  0  0  0  0
    6.9474    0.2468    0.0000 O   0  0  0  0  0  0  0  0  0  0  0  0
    0.8660   -0.0000    0.0000 C   0  0  0  0  0  0  0  0  0  0  0  0
    1.8302   -1.1491    0.0000 N   0  0  0  0  0  0  0  0  0  0  0  0
   -0.4330    0.7500    0.0000 C   0  0  0  0  0  0  0  0  0  0  0  0
   -0.4330   -0.7500    0.0000 C   0  0  0  0  0  0  0  0  0  0  0  0
    3.0607    6.9700    0.0000 H   0  0  0  0  0  0  0  0  0  0  0  0
    0.9474    6.7851    0.0000 H   0  0  0  0  0  0  0  0  0  0  0  0
    3.2455    4.8567    0.0000 H   0  0  0  0  0  0  0  0  0  0  0  0
    3.1433    3.1839    0.0000 H   0  0  0  0  0  0  0  0  0  0  0  0
   -0.4679    3.0774    0.0000 H   0  0  0  0  0  0  0  0  0  0  0  0
   -1.2472   -0.1849    0.0000 H   0  0  0  0  0  0  0  0  0  0  0  0
   -1.4321    1.9284    0.0000 H   0  0  0  0  0  0  0  0  0  0  0  0
    0.5986   -0.2494    0.0000 H   0  0  0  0  0  0  0  0  0  0  0  0
    2.9273    2.1720    0.0000 H   0  0  0  0  0  0  0  0  0  0  0  0
    2.3218   -1.1633    0.0000 H   0  0  0  0  0  0  0  0  0  0  0  0
    3.9435    1.3340    0.0000 H   0  0  0  0  0  0  0  0  0  0  0  0
    6.0509   -1.6758    0.0000 H   0  0  0  0  0  0  0  0  0  0  0  0
    5.0248    1.1433    0.0000 H   0  0  0  0  0  0  0  0  0  0  0  0
    7.2079    1.7240    0.0000 H   0  0  0  0  0  0  0  0  0  0  0  0
    1.3172   -2.5586    0.0000 H   0  0  0  0  0  0  0  0  0  0  0  0
    3.3074   -0.8886    0.0000 H   0  0  0  0  0  0  0  0  0  0  0  0
   -1.9102    1.0105    0.0000 H   0  0  0  0  0  0  0  0  0  0  0  0
   -0.2763    2.2418    0.0000 H   0  0  0  0  0  0  0  0  0  0  0  0
    0.0800   -2.1595    0.0000 H   0  0  0  0  0  0  0  0  0  0  0  0
   -1.9102   -1.0105    0.0000 H   0  0  0  0  0  0  0  0  0  0  0  0
  1  2  1  0
  2  3  2  3
  3  4  1  0
  4  5  1  0
  4  6  1  0
  6  7  1  0
  7  8  1  0
  8  9  2  0
  8 10  1  0
 10 11  1  0
  6 12  1  0
 12 13  1  0
 12 14  1  0
 14 15  1  0
 15 12  1  0
  1 16  1  0
  1 17  1  0
  1 18  1  0
  3 19  1  0
  4 20  1  6
  5 21  1  0
  5 22  1  0
  5 23  1  0
  6 24  1  6
  7 25  1  0
  7 26  1  0
 10 27  1  0
 10 28  1  0
 11 29  1  0
 13 30  1  0
 13 31  1  0
 14 32  1  0
 14 33  1  0
 15 34  1  0
 15 35  1  0
M  END
$$$$
