
     RDKit          2D

 59 65  0  0  0  0  0  0  0  0999 V2000
   -6.0311    2.2500    0.0000 C   0  0  0  0  0  0  0  0  0  0  0  0
   -4.5311    2.2500    0.0000 C   0  0  0  0  0  0  0  0  0  0  0  0
   -3.0311    2.2500    0.0000 C   0  0  0  0  0  0  0  0  0  0  0  0
   -3.0311    0.7500    0.0000 C   0  0  0  0  0  0  0  0  0  0  0  0
   -1.7321    0.0000    0.0000 C   0  0  0  0  0  0  0  0  0  0  0  0
   -0.7679   -1.1491    0.0000 F   0  0  0  0  0  0  0  0  0  0  0  0
   -0.7679    1.1491    0.0000 C   0  0  0  0  0  0  0  0  0  0  0  0
    0.1963    2.2981    0.0000 C   0  0  0  0  0  0  0  0  0  0  0  0
    1.1605    3.4472    0.0000 C   0  0  0  0  0  0  0  0  0  0  0  0
    1.6735    4.8567    0.0000 C   0  0  0  0  0  0  0  0  0  0  0  0
    0.1963    4.5963    0.0000 N   0  0  0  0  0  0  0  0  0  0  0  0
   -3.0311   -0.7500    0.0000 C   0  0  0  0  0  0  0  0  0  0  0  0
   -3.0311   -2.2500    0.0000 F   0  0  0  0  0  0  0  0  0  0  0  0
   -4.3301   -0.0000    0.0000 C   0  0  0  0  0  0  0  0  0  0  0  0
   -5.6292    0.7500    0.0000 C   0  0  0  0  0  0  0  0  0  0  0  0
   -6.9282   -0.0000    0.0000 C   0  0  0  0  0  0  0  0  0  0  0  0
   -5.6292   -0.7500    0.0000 C   0  0  0  0  0  0  0  0  0  0  0  0
   -3.0311    3.7500    0.0000 C   0  0  0  0  0  0  0  0  0  0  0  0
   -3.0311    5.2500    0.0000 C   0  0  0  0  0  0  0  0  0  0  0  0
   -4.5311    5.2500    0.0000 C   0  0  0  0  0  0  0  0  0  0  0  0
   -4.5311    3.7500    0.0000 C   0  0  0  0  0  0  0  0  0  0  0  0
   -6.0311    3.7500    0.0000 C   0  0  0  0  0  0  0  0  0  0  0  0
   -7.5311    3.7500    0.0000 C   0  0  0  0  0  0  0  0  0  0  0  0
   -9.0311    3.7500    0.0000 C   0  0  0  0  0  0  0  0  0  0  0  0
  -10.5311    3.7500    0.0000 C   0  0  0  0  0  0  0  0  0  0  0  0
  -12.0311    3.7500    0.0000 C   0  0  0  0  0  0  0  0  0  0  0  0
  -13.5311    3.7500    0.0000 F   0  0  0  0  0  0  0  0  0  0  0  0
   -7.5199    2.0672    0.0000 H   0  0  0  0  0  0  0  0  0  0  0  0
   -6.2240    3.0235    0.0000 H   0  0  0  0  0  0  0  0  0  0  0  0
   -6.3941    0.7946    0.0000 H   0  0  0  0  0  0  0  0  0  0  0  0
   -4.8941    0.7946    0.0000 H   0  0  0  0  0  0  0  0  0  0  0  0
   -1.5423    2.4328    0.0000 H   0  0  0  0  0  0  0  0  0  0  0  0
   -1.7908    2.2461    0.0000 H   0  0  0  0  0  0  0  0  0  0  0  0
    0.3812    0.1849    0.0000 H   0  0  0  0  0  0  0  0  0  0  0  0
   -0.8267    3.3952    0.0000 H   0  0  0  0  0  0  0  0  0  0  0  0
    1.3454    1.3340    0.0000 H   0  0  0  0  0  0  0  0  0  0  0  0
    2.4595    2.6972    0.0000 H   0  0  0  0  0  0  0  0  0  0  0  0
    3.1507    4.5963    0.0000 H   0  0  0  0  0  0  0  0  0  0  0  0
    1.6735    6.3567    0.0000 H   0  0  0  0  0  0  0  0  0  0  0  0
   -1.1402    5.2773    0.0000 H   0  0  0  0  0  0  0  0  0  0  0  0
   -6.1668    2.1503    0.0000 H   0  0  0  0  0  0  0  0  0  0  0  0
   -7.8924    1.1491    0.0000 H   0  0  0  0  0  0  0  0  0  0  0  0
   -7.8924   -1.1491    0.0000 H   0  0  0  0  0  0  0  0  0  0  0  0
   -5.6292   -2.2500    0.0000 H   0  0  0  0  0  0  0  0  0  0  0  0
   -1.5423    3.9328    0.0000 H   0  0  0  0  0  0  0  0  0  0  0  0
   -3.0311    6.7500    0.0000 H   0  0  0  0  0  0  0  0  0  0  0  0
   -1.5423    5.4328    0.0000 H   0  0  0  0  0  0  0  0  0  0  0  0
   -6.0199    5.4328    0.0000 H   0  0  0  0  0  0  0  0  0  0  0  0
   -4.5311    6.7500    0.0000 H   0  0  0  0  0  0  0  0  0  0  0  0
   -6.2139    5.2388    0.0000 H   0  0  0  0  0  0  0  0  0  0  0  0
   -6.5688    2.3497    0.0000 H   0  0  0  0  0  0  0  0  0  0  0  0
   -7.5311    5.2500    0.0000 H   0  0  0  0  0  0  0  0  0  0  0  0
   -7.7139    2.2612    0.0000 H   0  0  0  0  0  0  0  0  0  0  0  0
   -9.0311    5.2500    0.0000 H   0  0  0  0  0  0  0  0  0  0  0  0
   -9.0311    2.2500    0.0000 H   0  0  0  0  0  0  0  0  0  0  0  0
  -10.5311    5.2500    0.0000 H   0  0  0  0  0  0  0  0  0  0  0  0
  -10.5311    2.2500    0.0000 H   0  0  0  0  0  0  0  0  0  0  0  0
  -12.0311    2.2500    0.0000 H   0  0  0  0  0  0  0  0  0  0  0  0
  -12.0311    5.2500    0.0000 H   0  0  0  0  0  0  0  0  0  0  0  0
  1  2  1  0
  2  3  1  0
  3  4  1  0
  4  5  1  0
  5  6  1  0
  5  7  1  0
  7  8  1  0
  8  9  1  0
  9 10  1  0
 10 11  1  0
  5 12  1  0
 12 13  1  0
 12 14  1  0
 14 15  1  0
 15 16  1  0
 16 17  1  0
  3 18  1  0
 18 19  1  0
 19 20  1  0
 20 21  1  0
 21 22  1  0
 22 23  1  0
 23 24  1  0
 24 25  1  0
 25 26  1  0
 26 27  1  0
 21  2  1  0
 12  4  1  0
 17 14  1  0
 21 18  1  0
 14  4  1  0
 17 15  1  0
 11  9  1  0
  1 28  1  0
  1 29  1  0
  1 30  1  0
  2 31  1  0
  3 32  1  0
  7 33  1  0
  7 34  1  0
  8 35  1  0
  8 36  1  0
  9 37  1  0
 10 38  1  0
 10 39  1  0
 11 40  1  0
 15 41  1  0
 16 42  1  0
 16 43  1  0
 17 44  1  0
 18 45  1  0
 19 46  1  0
 19 47  1  0
 20 48  1  0
 20 49  1  0
 22 50  1  0
 22 51  1  0
 23 52  1  0
 23 53  1  0
 24 54  1  0
 24 55  1  0
 25 56  1  0
 25 57  1  0
 26 58  1  0
 26 59  1  0
M  END
$$$$
