
     RDKit          2D

 36 37  0  0  0  0  0  0  0  0999 V2000
   -0.9644   -6.9203    0.0000 C   0  0  0  0  0  0  0  0  0  0  0  0
    0.4845   -7.3085    0.0000 C   0  0  0  0  0  0  0  0  0  0  0  0
    1.9334   -7.6967    0.0000 C   0  0  0  0  0  0  0  0  0  0  0  0
    3.3823   -8.0849    0.0000 C   0  0  0  0  0  0  0  0  0  0  0  0
    4.8312   -8.4732    0.0000 Cl  0  0  0  0  0  0  0  0  0  0  0  0
    0.8727   -5.8596    0.0000 C   0  0  0  0  0  0  0  0  0  0  0  0
    1.2610   -4.4107    0.0000 C   0  0  0  0  0  0  0  0  0  0  0  0
    2.7552   -4.5414    0.0000 O   0  0  0  0  0  0  0  0  0  0  0  0
    2.1213   -3.1820    0.0000 C   0  0  0  0  0  0  0  0  0  0  0  0
    1.0607   -2.1213    0.0000 C   0  0  0  0  0  0  0  0  0  0  0  0
   -0.0000   -1.0607    0.0000 C   0  0  0  0  0  0  0  0  0  0  0  0
    1.0607    0.0000    0.0000 C   0  0  0  0  0  0  0  0  0  0  0  0
    0.0000    1.0607    0.0000 C   0  0  0  0  0  0  0  0  0  0  0  0
   -1.0607    2.1213    0.0000 N   0  0  0  0  0  0  0  0  0  0  0  0
   -1.0607    0.0000    0.0000 N   0  0  0  0  0  0  0  0  0  0  0  0
   -2.4133   -6.5320    0.0000 H   0  0  0  0  0  0  0  0  0  0  0  0
   -1.3526   -8.3691    0.0000 H   0  0  0  0  0  0  0  0  0  0  0  0
   -0.8411   -6.0431    0.0000 H   0  0  0  0  0  0  0  0  0  0  0  0
    0.0963   -8.7574    0.0000 H   0  0  0  0  0  0  0  0  0  0  0  0
    2.2652   -6.8755    0.0000 H   0  0  0  0  0  0  0  0  0  0  0  0
    1.5452   -9.1456    0.0000 H   0  0  0  0  0  0  0  0  0  0  0  0
    3.7705   -6.6361    0.0000 H   0  0  0  0  0  0  0  0  0  0  0  0
    2.9940   -9.5338    0.0000 H   0  0  0  0  0  0  0  0  0  0  0  0
    1.7498   -5.9828    0.0000 H   0  0  0  0  0  0  0  0  0  0  0  0
    0.0515   -5.5278    0.0000 H   0  0  0  0  0  0  0  0  0  0  0  0
   -0.0230   -3.9936    0.0000 H   0  0  0  0  0  0  0  0  0  0  0  0
    3.3500   -2.3216    0.0000 H   0  0  0  0  0  0  0  0  0  0  0  0
    1.8362   -1.5154    0.0000 H   0  0  0  0  0  0  0  0  0  0  0  0
   -0.0032   -2.9524    0.0000 H   0  0  0  0  0  0  0  0  0  0  0  0
   -1.0607   -2.1213    0.0000 H   0  0  0  0  0  0  0  0  0  0  0  0
    2.1213    1.0607    0.0000 H   0  0  0  0  0  0  0  0  0  0  0  0
    1.8362   -0.6059    0.0000 H   0  0  0  0  0  0  0  0  0  0  0  0
    1.0607    2.1213    0.0000 H   0  0  0  0  0  0  0  0  0  0  0  0
   -0.6724    3.5702    0.0000 H   0  0  0  0  0  0  0  0  0  0  0  0
   -2.5095    1.7331    0.0000 H   0  0  0  0  0  0  0  0  0  0  0  0
   -2.5607    0.0000    0.0000 H   0  0  0  0  0  0  0  0  0  0  0  0
  1  2  1  0
  2  3  1  0
  3  4  1  0
  4  5  1  0
  2  6  1  0
  6  7  1  0
  7  8  1  0
  8  9  1  0
  9 10  1  0
 10 11  1  0
 11 12  1  0
 12 13  1  0
 13 14  1  0
 13 15  1  0
  9  7  1  0
 15 11  1  0
  1 16  1  0
  1 17  1  0
  1 18  1  0
  2 19  1  0
  3 20  1  0
  3 21  1  0
  4 22  1  0
  4 23  1  0
  6 24  1  0
  6 25  1  0
  7 26  1  0
  9 27  1  0
 10 28  1  0
 10 29  1  0
 11 30  1  0
 12 31  1  0
 12 32  1  0
 13 33  1  0
 14 34  1  0
 14 35  1  0
 15 36  1  0
M  END
$$$$
