
     RDKit          2D

106114  0  0  0  0  0  0  0  0999 V2000
   -8.1472    3.2903    0.0000 C   0  0  0  0  0  0  0  0  0  0  0  0
   -7.6623    1.8708    0.0000 C   0  0  0  0  0  0  0  0  0  0  0  0
   -7.1775    0.4514    0.0000 O   0  0  0  0  0  0  0  0  0  0  0  0
   -8.1644   -0.6783    0.0000 C   0  0  0  0  0  0  0  0  0  0  0  0
   -6.8435   -1.3891    0.0000 C   0  0  0  0  0  0  0  0  0  0  0  0
   -5.3451   -1.4564    0.0000 C   0  0  0  0  0  0  0  0  0  0  0  0
   -4.0242   -2.1672    0.0000 C   0  0  0  0  0  0  0  0  0  0  0  0
   -2.6449   -1.5776    0.0000 C   0  0  0  0  0  0  0  0  0  0  0  0
   -2.2458   -0.1317    0.0000 C   0  0  0  0  0  0  0  0  0  0  0  0
   -2.6772    1.3049    0.0000 N   0  0  0  0  0  0  0  0  0  0  0  0
   -3.1275    1.0818    0.0000 C   0  0  0  0  0  0  0  0  0  0  0  0
   -4.6260    1.1491    0.0000 C   0  0  0  0  0  0  0  0  0  0  0  0
   -4.4594    2.7722    0.0000 C   0  0  0  0  0  0  0  0  0  0  0  0
   -3.9787    4.1931    0.0000 C   0  0  0  0  0  0  0  0  0  0  0  0
   -2.7546    5.0600    0.0000 C   0  0  0  0  0  0  0  0  0  0  0  0
   -3.2009    6.4921    0.0000 N   0  0  0  0  0  0  0  0  0  0  0  0
   -1.2547    5.0419    0.0000 C   0  0  0  0  0  0  0  0  0  0  0  0
   -0.0520    4.1456    0.0000 C   0  0  0  0  0  0  0  0  0  0  0  0
    1.4479    4.1275    0.0000 C   0  0  0  0  0  0  0  0  0  0  0  0
    0.3943    2.7135    0.0000 C   0  0  0  0  0  0  0  0  0  0  0  0
   -1.0323    3.1771    0.0000 C   0  0  0  0  0  0  0  0  0  0  0  0
   -1.9140    1.9635    0.0000 C   0  0  0  0  0  0  0  0  0  0  0  0
   -1.0323    0.7500    0.0000 C   0  0  0  0  0  0  0  0  0  0  0  0
    0.3943    1.2135    0.0000 C   0  0  0  0  0  0  0  0  0  0  0  0
    1.2760    0.0000    0.0000 O   0  0  0  0  0  0  0  0  0  0  0  0
    0.3943   -1.2135    0.0000 C   0  0  0  0  0  0  0  0  0  0  0  0
    1.7308   -1.8945    0.0000 N   0  0  0  0  0  0  0  0  0  0  0  0
   -0.0692   -2.6401    0.0000 N   0  0  0  0  0  0  0  0  0  0  0  0
   -1.4958   -2.1766    0.0000 C   0  0  0  0  0  0  0  0  0  0  0  0
   -1.0323   -0.7500    0.0000 C   0  0  0  0  0  0  0  0  0  0  0  0
   -2.5138   -0.5153    0.0000 C   0  0  0  0  0  0  0  0  0  0  0  0
   -5.6129    0.0195    0.0000 C   0  0  0  0  0  0  0  0  0  0  0  0
   -6.4946    1.2331    0.0000 C   0  0  0  0  0  0  0  0  0  0  0  0
   -6.5757   -2.8650    0.0000 C   0  0  0  0  0  0  0  0  0  0  0  0
   -7.5626   -3.9946    0.0000 C   0  0  0  0  0  0  0  0  0  0  0  0
   -9.0611   -3.9273    0.0000 C   0  0  0  0  0  0  0  0  0  0  0  0
   -9.4925   -5.3639    0.0000 C   0  0  0  0  0  0  0  0  0  0  0  0
  -10.9921   -5.3975    0.0000 C   0  0  0  0  0  0  0  0  0  0  0  0
  -10.8019   -6.8854    0.0000 C   0  0  0  0  0  0  0  0  0  0  0  0
  -10.6117   -8.3733    0.0000 C   0  0  0  0  0  0  0  0  0  0  0  0
  -11.4875   -3.9817    0.0000 C   0  0  0  0  0  0  0  0  0  0  0  0
  -10.2941   -3.0730    0.0000 C   0  0  0  0  0  0  0  0  0  0  0  0
   -9.4399   -1.8400    0.0000 C   0  0  0  0  0  0  0  0  0  0  0  0
   -8.2069   -2.6943    0.0000 C   0  0  0  0  0  0  0  0  0  0  0  0
   -8.6320    4.7098    0.0000 H   0  0  0  0  0  0  0  0  0  0  0  0
   -9.5666    2.8055    0.0000 H   0  0  0  0  0  0  0  0  0  0  0  0
   -6.7277    3.7751    0.0000 H   0  0  0  0  0  0  0  0  0  0  0  0
   -9.1303    1.5627    0.0000 H   0  0  0  0  0  0  0  0  0  0  0  0
   -6.1943    2.1790    0.0000 H   0  0  0  0  0  0  0  0  0  0  0  0
   -9.1875    0.4187    0.0000 H   0  0  0  0  0  0  0  0  0  0  0  0
   -6.2712   -0.0025    0.0000 H   0  0  0  0  0  0  0  0  0  0  0  0
   -5.7441   -2.9023    0.0000 H   0  0  0  0  0  0  0  0  0  0  0  0
   -4.8660   -3.4086    0.0000 H   0  0  0  0  0  0  0  0  0  0  0  0
   -3.2970   -3.4791    0.0000 H   0  0  0  0  0  0  0  0  0  0  0  0
   -2.3770   -3.0535    0.0000 H   0  0  0  0  0  0  0  0  0  0  0  0
   -1.2072   -2.0055    0.0000 H   0  0  0  0  0  0  0  0  0  0  0  0
   -4.0103    1.9927    0.0000 H   0  0  0  0  0  0  0  0  0  0  0  0
   -1.9435    2.6133    0.0000 H   0  0  0  0  0  0  0  0  0  0  0  0
   -3.7308    2.4552    0.0000 H   0  0  0  0  0  0  0  0  0  0  0  0
   -5.6707    2.2255    0.0000 H   0  0  0  0  0  0  0  0  0  0  0  0
   -5.7625    3.5152    0.0000 H   0  0  0  0  0  0  0  0  0  0  0  0
   -5.6835    1.9052    0.0000 H   0  0  0  0  0  0  0  0  0  0  0  0
   -4.4250    5.6251    0.0000 H   0  0  0  0  0  0  0  0  0  0  0  0
   -5.4652    4.3939    0.0000 H   0  0  0  0  0  0  0  0  0  0  0  0
   -2.1838    7.5946    0.0000 H   0  0  0  0  0  0  0  0  0  0  0  0
   -0.1455    6.0516    0.0000 H   0  0  0  0  0  0  0  0  0  0  0  0
   -1.7010    6.4740    0.0000 H   0  0  0  0  0  0  0  0  0  0  0  0
    0.5984    5.4973    0.0000 H   0  0  0  0  0  0  0  0  0  0  0  0
    2.9478    4.1094    0.0000 H   0  0  0  0  0  0  0  0  0  0  0  0
    1.4661    5.6274    0.0000 H   0  0  0  0  0  0  0  0  0  0  0  0
    1.4298    2.6276    0.0000 H   0  0  0  0  0  0  0  0  0  0  0  0
    1.7851    3.2754    0.0000 H   0  0  0  0  0  0  0  0  0  0  0  0
   -0.7719    4.6543    0.0000 H   0  0  0  0  0  0  0  0  0  0  0  0
   -2.3313    3.9271    0.0000 H   0  0  0  0  0  0  0  0  0  0  0  0
   -2.8374    3.1456    0.0000 H   0  0  0  0  0  0  0  0  0  0  0  0
    1.8209    1.6771    0.0000 H   0  0  0  0  0  0  0  0  0  0  0  0
    1.8093   -3.3925    0.0000 H   0  0  0  0  0  0  0  0  0  0  0  0
    2.9888   -1.0776    0.0000 H   0  0  0  0  0  0  0  0  0  0  0  0
    0.6118   -3.9766    0.0000 H   0  0  0  0  0  0  0  0  0  0  0  0
   -2.9922   -2.0720    0.0000 H   0  0  0  0  0  0  0  0  0  0  0  0
   -1.7820   -3.6490    0.0000 H   0  0  0  0  0  0  0  0  0  0  0  0
   -3.9954   -0.2807    0.0000 H   0  0  0  0  0  0  0  0  0  0  0  0
   -2.4615    0.9837    0.0000 H   0  0  0  0  0  0  0  0  0  0  0  0
   -2.8258    0.9518    0.0000 H   0  0  0  0  0  0  0  0  0  0  0  0
   -7.0538   -0.3975    0.0000 H   0  0  0  0  0  0  0  0  0  0  0  0
   -7.0564    2.6239    0.0000 H   0  0  0  0  0  0  0  0  0  0  0  0
   -7.9435    0.8450    0.0000 H   0  0  0  0  0  0  0  0  0  0  0  0
   -7.8065    0.5059    0.0000 H   0  0  0  0  0  0  0  0  0  0  0  0
   -5.5527   -3.9620    0.0000 H   0  0  0  0  0  0  0  0  0  0  0  0
   -5.1348   -2.4479    0.0000 H   0  0  0  0  0  0  0  0  0  0  0  0
   -7.7824   -5.4784    0.0000 H   0  0  0  0  0  0  0  0  0  0  0  0
   -6.3382   -4.8611    0.0000 H   0  0  0  0  0  0  0  0  0  0  0  0
   -8.0636   -5.8203    0.0000 H   0  0  0  0  0  0  0  0  0  0  0  0
   -9.4326   -6.8627    0.0000 H   0  0  0  0  0  0  0  0  0  0  0  0
  -12.4520   -5.7423    0.0000 H   0  0  0  0  0  0  0  0  0  0  0  0
  -12.2898   -7.0757    0.0000 H   0  0  0  0  0  0  0  0  0  0  0  0
   -9.3019   -6.8780    0.0000 H   0  0  0  0  0  0  0  0  0  0  0  0
  -10.4214   -9.8612    0.0000 H   0  0  0  0  0  0  0  0  0  0  0  0
  -12.0996   -8.5636    0.0000 H   0  0  0  0  0  0  0  0  0  0  0  0
   -9.1238   -8.1831    0.0000 H   0  0  0  0  0  0  0  0  0  0  0  0
  -12.8438   -4.6224    0.0000 H   0  0  0  0  0  0  0  0  0  0  0  0
  -12.2665   -2.6998    0.0000 H   0  0  0  0  0  0  0  0  0  0  0  0
  -11.3783   -2.0364    0.0000 H   0  0  0  0  0  0  0  0  0  0  0  0
   -9.7077   -0.3641    0.0000 H   0  0  0  0  0  0  0  0  0  0  0  0
   -6.7171   -2.8695    0.0000 H   0  0  0  0  0  0  0  0  0  0  0  0
   -7.0797   -1.7046    0.0000 H   0  0  0  0  0  0  0  0  0  0  0  0
  1  2  1  0
  2  3  1  0
  3  4  1  0
  4  5  1  0
  5  6  1  0
  6  7  1  0
  7  8  1  0
  8  9  1  0
  9 10  1  6
  9 11  1  0
 11 12  1  0
 12 13  1  0
 13 14  1  0
 14 15  1  0
 15 16  2  3
 15 17  1  0
 17 18  1  0
 18 19  1  0
 18 20  1  0
 20 21  1  0
 21 22  1  0
 22 23  1  0
 23 24  1  0
 24 25  1  0
 25 26  1  0
 26 27  1  1
 26 28  1  0
 28 29  1  0
 29 30  1  0
 30 31  1  1
 12 32  1  0
 32 33  1  0
  5 34  1  0
 34 35  1  0
 35 36  1  0
 36 37  1  6
 37 38  1  0
 38 39  1  0
 39 40  1  0
 38 41  1  0
 41 42  1  0
 42 43  1  0
 43 44  1  0
 43  4  1  0
 32  6  1  0
 42 36  1  0
 23  9  1  1
 30 26  1  0
 44 36  1  0
 22 11  1  0
 30 23  1  0
 24 20  1  0
  1 45  1  0
  1 46  1  0
  1 47  1  0
  2 48  1  0
  2 49  1  0
  4 50  1  6
  5 51  1  1
  6 52  1  6
  7 53  1  0
  7 54  1  0
  8 55  1  0
  8 56  1  0
 10 57  1  0
 10 58  1  0
 11 59  1  6
 12 60  1  1
 13 61  1  0
 13 62  1  0
 14 63  1  0
 14 64  1  0
 16 65  1  0
 17 66  1  0
 17 67  1  0
 18 68  1  1
 19 69  1  0
 19 70  1  0
 19 71  1  0
 20 72  1  6
 21 73  1  0
 21 74  1  0
 22 75  1  1
 24 76  1  1
 27 77  1  0
 27 78  1  0
 28 79  1  0
 29 80  1  0
 29 81  1  0
 31 82  1  0
 31 83  1  0
 31 84  1  0
 32 85  1  1
 33 86  1  0
 33 87  1  0
 33 88  1  0
 34 89  1  0
 34 90  1  0
 35 91  1  0
 35 92  1  0
 37 93  1  0
 37 94  1  0
 38 95  1  1
 39 96  1  0
 39 97  1  0
 40 98  1  0
 40 99  1  0
 40100  1  0
 41101  1  0
 41102  1  0
 42103  1  1
 43104  1  1
 44105  1  0
 44106  1  0
M  END
$$$$
