
     RDKit          2D

 41 41  0  0  0  0  0  0  0  0999 V2000
    2.6150    7.8671    0.0000 C   0  0  0  0  0  0  0  0  0  0  0  0
    4.0113    7.3191    0.0000 C   0  0  0  0  0  0  0  0  0  0  0  0
    5.4076    6.7711    0.0000 C   0  0  0  0  0  0  0  0  0  0  0  0
    6.8039    6.2231    0.0000 C   0  0  0  0  0  0  0  0  0  0  0  0
    4.8596    5.3748    0.0000 C   0  0  0  0  0  0  0  0  0  0  0  0
    4.3116    3.9785    0.0000 O   0  0  0  0  0  0  0  0  0  0  0  0
    5.2468    2.8057    0.0000 C   0  0  0  0  0  0  0  0  0  0  0  0
    6.4196    3.7409    0.0000 C   0  0  0  0  0  0  0  0  0  0  0  0
    4.0741    1.8705    0.0000 C   0  0  0  0  0  0  0  0  0  0  0  0
    2.9013    0.9352    0.0000 C   0  0  0  0  0  0  0  0  0  0  0  0
    1.7286    0.0000    0.0000 C   0  0  0  0  0  0  0  0  0  0  0  0
    1.0777    1.3515    0.0000 O   0  0  0  0  0  0  0  0  0  0  0  0
   -0.3846    1.6852    0.0000 C   0  0  0  0  0  0  0  0  0  0  0  0
   -1.5574    0.7500    0.0000 C   0  0  0  0  0  0  0  0  0  0  0  0
   -1.5574   -0.7500    0.0000 C   0  0  0  0  0  0  0  0  0  0  0  0
   -0.3846   -1.6852    0.0000 Se  0  0  0  0  0  2  0  0  0  0  0  0
    1.0777   -1.3515    0.0000 O   0  0  0  0  0  0  0  0  0  0  0  0
    1.2187    8.4151    0.0000 H   0  0  0  0  0  0  0  0  0  0  0  0
    3.1630    9.2634    0.0000 H   0  0  0  0  0  0  0  0  0  0  0  0
    2.0670    6.4708    0.0000 H   0  0  0  0  0  0  0  0  0  0  0  0
    3.2972    6.0000    0.0000 H   0  0  0  0  0  0  0  0  0  0  0  0
    4.5593    8.7154    0.0000 H   0  0  0  0  0  0  0  0  0  0  0  0
    5.9556    8.1674    0.0000 H   0  0  0  0  0  0  0  0  0  0  0  0
    8.2002    5.6750    0.0000 H   0  0  0  0  0  0  0  0  0  0  0  0
    7.3519    7.6194    0.0000 H   0  0  0  0  0  0  0  0  0  0  0  0
    6.5127    5.4810    0.0000 H   0  0  0  0  0  0  0  0  0  0  0  0
    5.6016    5.0835    0.0000 H   0  0  0  0  0  0  0  0  0  0  0  0
    3.4069    5.7485    0.0000 H   0  0  0  0  0  0  0  0  0  0  0  0
    6.1821    1.6330    0.0000 H   0  0  0  0  0  0  0  0  0  0  0  0
    7.5923    4.6762    0.0000 H   0  0  0  0  0  0  0  0  0  0  0  0
    5.7959    5.1051    0.0000 H   0  0  0  0  0  0  0  0  0  0  0  0
    7.3548    2.5682    0.0000 H   0  0  0  0  0  0  0  0  0  0  0  0
    5.0093    0.6977    0.0000 H   0  0  0  0  0  0  0  0  0  0  0  0
    3.1388    3.0432    0.0000 H   0  0  0  0  0  0  0  0  0  0  0  0
    1.9661    2.1080    0.0000 H   0  0  0  0  0  0  0  0  0  0  0  0
    3.8366   -0.2375    0.0000 H   0  0  0  0  0  0  0  0  0  0  0  0
    2.9013   -0.9352    0.0000 H   0  0  0  0  0  0  0  0  0  0  0  0
   -0.7184    3.1476    0.0000 H   0  0  0  0  0  0  0  0  0  0  0  0
   -2.9088    1.4008    0.0000 H   0  0  0  0  0  0  0  0  0  0  0  0
   -2.2082   -2.1015    0.0000 H   0  0  0  0  0  0  0  0  0  0  0  0
   -3.0198   -0.4162    0.0000 H   0  0  0  0  0  0  0  0  0  0  0  0
  1  2  1  0
  2  3  1  0
  3  4  1  0
  3  5  1  0
  5  6  1  0
  6  7  1  0
  7  8  1  0
  7  9  1  0
  9 10  1  0
 10 11  1  0
 11 12  1  0
 12 13  1  0
 13 14  2  0
 14 15  1  0
 15 16  1  0
 16 17  1  0
 17 11  1  0
  1 18  1  0
  1 19  1  0
  1 20  1  0
  2 21  1  0
  2 22  1  0
  3 23  1  0
  4 24  1  0
  4 25  1  0
  4 26  1  0
  5 27  1  0
  5 28  1  0
  7 29  1  0
  8 30  1  0
  8 31  1  0
  8 32  1  0
  9 33  1  0
  9 34  1  0
 10 35  1  0
 10 36  1  0
 11 37  1  0
 13 38  1  0
 14 39  1  0
 15 40  1  0
 15 41  1  0
M  END
$$$$
