
     RDKit          3D

 43 54  0  0  0  0  0  0  0  0999 V2000
   17.3419  -28.0588  -14.4577 C   0  0  0  0  0  0  0  0  0  0  0  0
   18.0269  -29.1019  -14.4978 C   0  0  0  0  0  0  0  0  0  0  0  0
   18.6945  -27.7952  -13.8393 N   0  0  0  0  0  0  0  0  0  0  0  0
   16.4749  -29.0005  -15.1641 O   0  0  0  0  0  0  0  0  0  0  0  0
   20.0618  -26.4994  -15.9948 O   0  0  0  0  0  0  0  0  0  0  0  0
   19.4669  -29.2909  -16.2020 N   0  0  0  0  0  0  0  0  0  0  0  0
   20.3242  -30.4629  -11.5742 C   0  0  0  0  0  0  0  0  0  0  0  0
   18.8695  -30.6816  -10.3081 O   0  0  0  0  0  0  0  0  0  0  0  0
   19.5822  -28.4887  -12.8886 C   0  0  0  0  0  0  0  0  0  0  0  0
   17.5663  -30.7150  -15.3712 C   0  0  0  0  0  0  0  0  0  0  0  0
   21.5037  -26.8989  -17.4873 C   0  0  0  0  0  0  0  0  0  0  0  0
   21.5022  -25.2708  -17.9559 C   0  0  0  0  0  0  0  0  0  0  0  0
   21.1709  -30.0071  -13.8403 C   0  0  0  0  0  0  0  0  0  0  0  0
   21.7776  -28.1541  -12.5501 C   0  0  0  0  0  0  0  0  0  0  0  0
   16.8949  -32.5797  -15.2850 C   0  0  0  0  0  0  0  0  0  0  0  0
   19.8718  -27.7088  -15.0177 C   0  0  0  0  0  0  0  0  0  0  0  0
   20.6409  -28.3854  -11.3342 C   0  0  0  0  0  0  0  0  0  0  0  0
   21.9649  -28.8911  -17.2968 C   0  0  0  0  0  0  0  0  0  0  0  0
   18.0583  -30.1710  -14.1991 C   0  0  0  0  0  0  0  0  0  0  0  0
   16.7620  -33.6086  -13.6786 C   0  0  0  0  0  0  0  0  0  0  0  0
   17.5658  -33.5911  -12.1152 C   0  0  0  0  0  0  0  0  0  0  0  0
   21.1957  -26.9270  -17.8887 C   0  0  0  0  0  0  0  0  0  0  0  0
   22.8179  -27.7406  -19.0279 C   0  0  0  0  0  0  0  0  0  0  0  0
   18.9692  -33.1162  -11.9361 N   0  0  0  0  0  0  0  0  0  0  0  0
   18.7624  -32.2453  -14.4411 C   0  0  0  0  0  0  0  0  0  0  0  0
   19.6080  -31.1688  -14.7422 C   0  0  0  0  0  0  0  0  0  0  0  0
   18.2272  -31.9744  -15.7985 C   0  0  0  0  0  0  0  0  0  0  0  0
   19.1207  -34.0696  -10.6850 C   0  0  0  0  0  0  0  0  0  0  0  0
   17.3427  -31.2330  -13.0069 C   0  0  0  0  0  0  0  0  0  0  0  0
   19.9591  -34.1680  -12.1739 C   0  0  0  0  0  0  0  0  0  0  0  0
   21.3464  -33.6293  -12.1626 C   0  0  0  0  0  0  0  0  0  0  0  0
   18.8501  -22.5440  -11.6091 C   0  0  0  0  0  0  0  0  0  0  0  0
   17.5881  -22.4605  -12.5165 N   0  0  0  0  0  0  0  0  0  0  0  0
   20.0452  -25.2000  -13.3679 F   0  0  0  0  0  0  0  0  0  0  0  0
   22.6402  -30.1539  -12.1728 C   0  0  0  0  0  0  0  0  0  0  0  0
   18.0020  -25.3091  -14.8335 C   0  0  0  0  0  0  0  0  0  0  0  0
   20.4386  -20.9818  -10.6785 C   0  0  0  0  0  0  0  0  0  0  0  0
   17.9902  -21.0038  -11.6618 C   0  0  0  0  0  0  0  0  0  0  0  0
   22.3530  -28.8590  -11.2510 C   0  0  0  0  0  0  0  0  0  0  0  0
   16.8472  -26.1333  -13.6007 C   0  0  0  0  0  0  0  0  0  0  0  0
   18.6062  -24.6598  -12.9159 C   0  0  0  0  0  0  0  0  0  0  0  0
   15.7908  -26.0962  -14.7810 C   0  0  0  0  0  0  0  0  0  0  0  0
   16.7929  -24.7148  -15.5432 C   0  0  0  0  0  0  0  0  0  0  0  0
  2  1  1  0
  3  2  1  0
  4  1  1  0
  4  2  1  0
  8  7  1  0
  9  3  1  0
 10  2  1  0
 11  5  1  0
 12 11  1  0
 13  6  1  0
 13  7  1  0
 14  9  1  0
 15 10  1  0
 16  3  1  0
 16  5  1  0
 16  6  1  0
 17  7  1  0
 17 14  1  0
 18 11  1  0
 19  1  1  0
 19 10  1  0
 20 15  1  0
 21 20  1  0
 22 12  1  0
 23 11  1  0
 23 18  1  0
 24 21  1  0
 26 19  1  0
 26 25  1  0
 27 10  1  0
 27 15  1  0
 27 25  1  0
 28 24  1  0
 29 19  1  0
 29 25  1  0
 30 24  1  0
 30 28  1  0
 31 30  1  0
 33 32  1  0
 35 13  1  0
 37 32  1  0
 38 32  1  0
 38 33  1  0
 39 14  1  0
 39 35  1  0
 40  1  1  0
 40 36  1  0
 41 32  1  0
 41 34  1  0
 41 36  1  0
 41 40  1  0
 42 40  1  0
 43 36  1  0
 43 42  1  0
M  END
$$$$
