
     RDKit          2D

 54 56  0  0  0  0  0  0  0  0999 V2000
   -4.4577   -4.2135    0.0000 C   0  0  0  0  0  0  0  0  0  0  0  0
   -4.4577   -2.7135    0.0000 C   0  0  0  0  0  0  0  0  0  0  0  0
   -3.1586   -1.9635    0.0000 C   0  0  0  0  0  0  0  0  0  0  0  0
   -1.8596   -1.2135    0.0000 C   0  0  0  0  0  0  0  0  0  0  0  0
   -1.2495   -2.5838    0.0000 C   0  0  0  0  0  0  0  0  0  0  0  0
   -2.7413    0.0000    0.0000 C   0  0  0  0  0  0  0  0  0  0  0  0
   -3.8560    1.0037    0.0000 C   0  0  0  0  0  0  0  0  0  0  0  0
   -1.8596    1.2135    0.0000 C   0  0  0  0  0  0  0  0  0  0  0  0
   -1.2495    2.5838    0.0000 P   0  0  0  0  0  0  0  0  0  0  0  0
   -2.1312    3.7974    0.0000 P   0  0  0  0  0  0  0  0  0  0  0  0
   -1.5211    5.1677    0.0000 C   0  0  0  0  0  0  0  0  0  0  0  0
   -0.4330    0.7500    0.0000 C   0  0  0  0  0  0  0  0  0  0  0  0
    0.1771    2.1203    0.0000 N   0  0  0  0  0  0  0  0  0  0  0  0
    0.0203    3.6121    0.0000 C   0  0  0  0  0  0  0  0  0  0  0  0
    1.3906    3.0020    0.0000 C   0  0  0  0  0  0  0  0  0  0  0  0
    2.2294    4.2456    0.0000 C   0  0  0  0  0  0  0  0  0  0  0  0
    3.0682    5.4891    0.0000 C   0  0  0  0  0  0  0  0  0  0  0  0
    3.9070    6.7327    0.0000 C   0  0  0  0  0  0  0  0  0  0  0  0
    4.7458    7.9762    0.0000 C   0  0  0  0  0  0  0  0  0  0  0  0
    5.5846    9.2198    0.0000 N   0  0  0  0  0  0  0  0  0  0  0  0
    5.9893    7.1374    0.0000 O   0  0  0  0  0  0  0  0  0  0  0  0
    0.8660    0.0000    0.0000 C   0  0  0  0  0  0  0  0  0  0  0  0
   -0.4330   -0.7500    0.0000 N   0  0  0  0  0  0  0  0  0  0  0  0
   -5.7567   -4.9635    0.0000 H   0  0  0  0  0  0  0  0  0  0  0  0
   -3.1586   -4.9635    0.0000 H   0  0  0  0  0  0  0  0  0  0  0  0
   -5.7567   -1.9635    0.0000 H   0  0  0  0  0  0  0  0  0  0  0  0
   -2.8472   -2.6973    0.0000 H   0  0  0  0  0  0  0  0  0  0  0  0
   -4.0614   -0.7656    0.0000 H   0  0  0  0  0  0  0  0  0  0  0  0
   -0.6394   -3.9542    0.0000 H   0  0  0  0  0  0  0  0  0  0  0  0
   -1.9328   -2.9944    0.0000 H   0  0  0  0  0  0  0  0  0  0  0  0
    0.1208   -1.9737    0.0000 H   0  0  0  0  0  0  0  0  0  0  0  0
   -3.9700   -0.8603    0.0000 H   0  0  0  0  0  0  0  0  0  0  0  0
   -4.9707    2.0074    0.0000 H   0  0  0  0  0  0  0  0  0  0  0  0
   -4.8597   -0.1110    0.0000 H   0  0  0  0  0  0  0  0  0  0  0  0
   -2.9957    2.2324    0.0000 H   0  0  0  0  0  0  0  0  0  0  0  0
   -3.0575    2.1163    0.0000 H   0  0  0  0  0  0  0  0  0  0  0  0
    0.1600    3.0969    0.0000 H   0  0  0  0  0  0  0  0  0  0  0  0
   -2.4027    6.3812    0.0000 H   0  0  0  0  0  0  0  0  0  0  0  0
   -0.0595    5.5052    0.0000 H   0  0  0  0  0  0  0  0  0  0  0  0
   -1.4063    4.0757    0.0000 H   0  0  0  0  0  0  0  0  0  0  0  0
    0.3832    5.0675    0.0000 H   0  0  0  0  0  0  0  0  0  0  0  0
    2.4696    1.9600    0.0000 H   0  0  0  0  0  0  0  0  0  0  0  0
    3.4730    3.4068    0.0000 H   0  0  0  0  0  0  0  0  0  0  0  0
    1.0974    5.2297    0.0000 H   0  0  0  0  0  0  0  0  0  0  0  0
    4.3118    4.6503    0.0000 H   0  0  0  0  0  0  0  0  0  0  0  0
    1.8246    6.3279    0.0000 H   0  0  0  0  0  0  0  0  0  0  0  0
    2.6634    7.5715    0.0000 H   0  0  0  0  0  0  0  0  0  0  0  0
    5.1505    5.8939    0.0000 H   0  0  0  0  0  0  0  0  0  0  0  0
    3.5022    8.8150    0.0000 H   0  0  0  0  0  0  0  0  0  0  0  0
    4.9270   10.5680    0.0000 H   0  0  0  0  0  0  0  0  0  0  0  0
    7.0809    9.1151    0.0000 H   0  0  0  0  0  0  0  0  0  0  0  0
    7.3375    7.7950    0.0000 H   0  0  0  0  0  0  0  0  0  0  0  0
    1.8302    1.1491    0.0000 H   0  0  0  0  0  0  0  0  0  0  0  0
    1.8302   -1.1491    0.0000 H   0  0  0  0  0  0  0  0  0  0  0  0
  1  2  2  3
  2  3  1  0
  3  4  1  0
  4  5  1  0
  4  6  1  0
  6  7  1  0
  6  8  1  0
  8  9  1  0
  9 10  1  0
 10 11  2  3
  8 12  1  0
 12 13  1  0
 13 14  1  0
 14 15  1  0
 15 16  1  0
 16 17  1  0
 17 18  1  0
 18 19  1  0
 19 20  1  0
 19 21  1  0
 12 22  1  0
 22 23  1  0
 23  4  1  0
 23 12  1  0
 15 13  1  0
  1 24  1  0
  1 25  1  0
  2 26  1  0
  3 27  1  0
  3 28  1  0
  5 29  1  0
  5 30  1  0
  5 31  1  0
  6 32  1  0
  7 33  1  0
  7 34  1  0
  7 35  1  0
  8 36  1  0
  9 37  1  0
 11 38  1  0
 11 39  1  0
 14 40  1  0
 14 41  1  0
 15 42  1  0
 16 43  1  0
 16 44  1  0
 17 45  1  0
 17 46  1  0
 18 47  1  0
 18 48  1  0
 19 49  1  0
 20 50  1  0
 20 51  1  0
 21 52  1  0
 22 53  1  0
 22 54  1  0
M  END
$$$$
