
     RDKit          2D

 79 82  0  0  0  0  0  0  0  0999 V2000
   15.6970  -11.1575    0.0000 C   0  0  0  0  0  0  0  0  0  0  0  0
   15.0739   -9.7930    0.0000 C   0  0  0  0  0  0  0  0  0  0  0  0
   13.5807   -9.6505    0.0000 C   0  0  0  0  0  0  0  0  0  0  0  0
   12.0875   -9.5079    0.0000 C   0  0  0  0  0  0  0  0  0  0  0  0
   10.5942   -9.3653    0.0000 C   0  0  0  0  0  0  0  0  0  0  0  0
    9.1010   -9.2227    0.0000 C   0  0  0  0  0  0  0  0  0  0  0  0
    7.6078   -9.0801    0.0000 C   0  0  0  0  0  0  0  0  0  0  0  0
    7.2081  -10.5259    0.0000 C   0  0  0  0  0  0  0  0  0  0  0  0
    7.4890   -7.5848    0.0000 C   0  0  0  0  0  0  0  0  0  0  0  0
    6.2534   -8.4354    0.0000 C   0  0  0  0  0  0  0  0  0  0  0  0
    5.3834   -9.6573    0.0000 C   0  0  0  0  0  0  0  0  0  0  0  0
    6.0065  -11.0217    0.0000 C   0  0  0  0  0  0  0  0  0  0  0  0
    3.8901   -9.5147    0.0000 C   0  0  0  0  0  0  0  0  0  0  0  0
    2.3969   -9.3721    0.0000 C   0  0  0  0  0  0  0  0  0  0  0  0
    0.9037   -9.2295    0.0000 C   0  0  0  0  0  0  0  0  0  0  0  0
    2.5395   -7.8789    0.0000 C   0  0  0  0  0  0  0  0  0  0  0  0
    2.6821   -6.3857    0.0000 C   0  0  0  0  0  0  0  0  0  0  0  0
    2.8247   -4.8925    0.0000 C   0  0  0  0  0  0  0  0  0  0  0  0
    3.8598   -3.8069    0.0000 C   0  0  0  0  0  0  0  0  0  0  0  0
    4.1437   -2.3340    0.0000 C   0  0  0  0  0  0  0  0  0  0  0  0
    3.5862   -0.9415    0.0000 C   0  0  0  0  0  0  0  0  0  0  0  0
    2.3643   -0.0714    0.0000 C   0  0  0  0  0  0  0  0  0  0  0  0
    0.8660    0.0000    0.0000 C   0  0  0  0  0  0  0  0  0  0  0  0
   -0.4330    0.7500    0.0000 C   0  0  0  0  0  0  0  0  0  0  0  0
   -1.9011   -0.8024    0.0000 C   0  0  0  0  0  0  0  0  0  0  0  0
   -1.1204   -2.0833    0.0000 N   0  0  0  0  0  0  0  0  0  0  0  0
   -0.9778   -3.5765    0.0000 C   0  0  0  0  0  0  0  0  0  0  0  0
   -0.0505   -4.7555    0.0000 C   0  0  0  0  0  0  0  0  0  0  0  0
    1.3670   -5.2461    0.0000 C   0  0  0  0  0  0  0  0  0  0  0  0
   -0.4330   -0.7500    0.0000 C   0  0  0  0  0  0  0  0  0  0  0  0
   17.1902  -11.3001    0.0000 H   0  0  0  0  0  0  0  0  0  0  0  0
   14.8269  -12.3794    0.0000 H   0  0  0  0  0  0  0  0  0  0  0  0
   15.9440   -8.5712    0.0000 H   0  0  0  0  0  0  0  0  0  0  0  0
   13.4381  -11.1437    0.0000 H   0  0  0  0  0  0  0  0  0  0  0  0
   13.7232   -8.1573    0.0000 H   0  0  0  0  0  0  0  0  0  0  0  0
   12.2300   -8.0147    0.0000 H   0  0  0  0  0  0  0  0  0  0  0  0
   11.9449  -11.0011    0.0000 H   0  0  0  0  0  0  0  0  0  0  0  0
   10.4517  -10.8585    0.0000 H   0  0  0  0  0  0  0  0  0  0  0  0
   10.7368   -7.8721    0.0000 H   0  0  0  0  0  0  0  0  0  0  0  0
    9.1338  -10.4373    0.0000 H   0  0  0  0  0  0  0  0  0  0  0  0
    9.4246   -7.7580    0.0000 H   0  0  0  0  0  0  0  0  0  0  0  0
    6.8084  -11.9717    0.0000 H   0  0  0  0  0  0  0  0  0  0  0  0
    8.3310  -10.9900    0.0000 H   0  0  0  0  0  0  0  0  0  0  0  0
    6.4112  -10.5057    0.0000 H   0  0  0  0  0  0  0  0  0  0  0  0
    6.8658   -6.2204    0.0000 H   0  0  0  0  0  0  0  0  0  0  0  0
    8.8841   -7.0339    0.0000 H   0  0  0  0  0  0  0  0  0  0  0  0
    5.2012   -7.3664    0.0000 H   0  0  0  0  0  0  0  0  0  0  0  0
    7.4208  -11.5214    0.0000 H   0  0  0  0  0  0  0  0  0  0  0  0
    5.1364  -12.2436    0.0000 H   0  0  0  0  0  0  0  0  0  0  0  0
    4.2137   -8.0500    0.0000 H   0  0  0  0  0  0  0  0  0  0  0  0
    3.7476  -11.0079    0.0000 H   0  0  0  0  0  0  0  0  0  0  0  0
    2.2544  -10.8653    0.0000 H   0  0  0  0  0  0  0  0  0  0  0  0
   -0.5895   -9.0870    0.0000 H   0  0  0  0  0  0  0  0  0  0  0  0
    0.7611  -10.7228    0.0000 H   0  0  0  0  0  0  0  0  0  0  0  0
    0.8632   -7.7301    0.0000 H   0  0  0  0  0  0  0  0  0  0  0  0
    1.0748   -7.5554    0.0000 H   0  0  0  0  0  0  0  0  0  0  0  0
    4.0390   -7.8384    0.0000 H   0  0  0  0  0  0  0  0  0  0  0  0
    1.1827   -6.4262    0.0000 H   0  0  0  0  0  0  0  0  0  0  0  0
    4.1753   -6.5283    0.0000 H   0  0  0  0  0  0  0  0  0  0  0  0
    4.1030   -5.6773    0.0000 H   0  0  0  0  0  0  0  0  0  0  0  0
    4.7045   -5.0464    0.0000 H   0  0  0  0  0  0  0  0  0  0  0  0
    5.3595   -3.7760    0.0000 H   0  0  0  0  0  0  0  0  0  0  0  0
    5.5245   -2.9201    0.0000 H   0  0  0  0  0  0  0  0  0  0  0  0
    5.3886   -1.4972    0.0000 H   0  0  0  0  0  0  0  0  0  0  0  0
    5.0646   -0.6880    0.0000 H   0  0  0  0  0  0  0  0  0  0  0  0
    4.1811    0.4355    0.0000 H   0  0  0  0  0  0  0  0  0  0  0  0
    3.4710    0.9412    0.0000 H   0  0  0  0  0  0  0  0  0  0  0  0
    2.1203    1.4086    0.0000 H   0  0  0  0  0  0  0  0  0  0  0  0
    1.1100    1.4800    0.0000 H   0  0  0  0  0  0  0  0  0  0  0  0
   -1.1830    2.0490    0.0000 H   0  0  0  0  0  0  0  0  0  0  0  0
   -3.1819   -1.5831    0.0000 H   0  0  0  0  0  0  0  0  0  0  0  0
   -2.6818    0.4784    0.0000 H   0  0  0  0  0  0  0  0  0  0  0  0
   -2.4355   -3.2228    0.0000 H   0  0  0  0  0  0  0  0  0  0  0  0
   -1.9365   -4.7301    0.0000 H   0  0  0  0  0  0  0  0  0  0  0  0
   -1.3977   -5.4153    0.0000 H   0  0  0  0  0  0  0  0  0  0  0  0
   -0.2334   -6.2444    0.0000 H   0  0  0  0  0  0  0  0  0  0  0  0
    0.4397   -6.4252    0.0000 H   0  0  0  0  0  0  0  0  0  0  0  0
    1.8485   -6.6668    0.0000 H   0  0  0  0  0  0  0  0  0  0  0  0
    0.7006   -1.7323    0.0000 H   0  0  0  0  0  0  0  0  0  0  0  0
  1  2  2  3
  2  3  1  0
  3  4  1  0
  4  5  1  0
  5  6  1  0
  7  6  1  1
  7  8  1  0
  7  9  1  0
  9 10  1  0
 10 11  1  0
 11 12  2  3
 11 13  1  0
 13 14  1  0
 14 15  1  0
 14 16  1  0
 16 17  1  0
 17 18  1  0
 18 19  1  0
 19 20  1  0
 20 21  1  0
 21 22  1  0
 22 23  1  0
 23 24  1  0
 24 25  1  0
 25 26  1  0
 26 27  1  0
 27 28  1  0
 28 29  1  0
 26 30  1  0
 10  7  1  0
 29 18  1  0
 30 23  1  0
 30 24  1  0
  1 31  1  0
  1 32  1  0
  2 33  1  0
  3 34  1  0
  3 35  1  0
  4 36  1  0
  4 37  1  0
  5 38  1  0
  5 39  1  0
  6 40  1  0
  6 41  1  0
  8 42  1  0
  8 43  1  0
  8 44  1  0
  9 45  1  0
  9 46  1  0
 10 47  1  6
 12 48  1  0
 12 49  1  0
 13 50  1  0
 13 51  1  0
 14 52  1  6
 15 53  1  0
 15 54  1  0
 15 55  1  0
 16 56  1  0
 16 57  1  0
 17 58  1  0
 17 59  1  0
 18 60  1  6
 19 61  1  0
 19 62  1  0
 20 63  1  0
 20 64  1  0
 21 65  1  0
 21 66  1  0
 22 67  1  0
 22 68  1  0
 23 69  1  1
 24 70  1  6
 25 71  1  0
 25 72  1  0
 27 73  1  0
 27 74  1  0
 28 75  1  0
 28 76  1  0
 29 77  1  0
 29 78  1  0
 30 79  1  6
M  END
$$$$
