
     RDKit          2D

 39 42  0  0  0  0  0  0  0  0999 V2000
   -3.5801    8.7990    0.0000 C   0  0  0  0  0  0  0  0  0  0  0  0
   -2.2811    8.0490    0.0000 O   0  0  0  0  0  0  0  0  0  0  0  0
   -2.2811    6.5490    0.0000 C   0  0  0  0  0  0  0  0  0  0  0  0
   -2.2811    5.0490    0.0000 C   0  0  0  0  0  0  0  0  0  0  0  0
   -2.2811    3.5490    0.0000 N   0  0  0  0  0  0  0  0  0  0  0  0
   -0.9821    2.7990    0.0000 C   0  0  0  0  0  0  0  0  0  0  0  0
    0.3170    2.0490    0.0000 C   0  0  0  0  0  0  0  0  0  0  0  0
    1.6160    1.2990    0.0000 C   0  0  0  0  0  0  0  0  0  0  0  0
    0.8660    0.0000    0.0000 C   0  0  0  0  0  0  0  0  0  0  0  0
   -0.4330    0.7500    0.0000 C   0  0  0  0  0  0  0  0  0  0  0  0
   -0.4330   -0.7500    0.0000 C   0  0  0  0  0  0  0  0  0  0  0  0
   -0.4330   -2.2500    0.0000 C   0  0  0  0  0  0  0  0  0  0  0  0
   -1.7321   -1.5000    0.0000 C   0  0  0  0  0  0  0  0  0  0  0  0
   -2.6962   -2.6491    0.0000 C   0  0  0  0  0  0  0  0  0  0  0  0
   -3.9953   -3.3991    0.0000 C   0  0  0  0  0  0  0  0  0  0  0  0
   -3.9953   -1.8991    0.0000 C   0  0  0  0  0  0  0  0  0  0  0  0
   -4.8792    9.5490    0.0000 H   0  0  0  0  0  0  0  0  0  0  0  0
   -2.8301   10.0981    0.0000 H   0  0  0  0  0  0  0  0  0  0  0  0
   -4.3301    7.5000    0.0000 H   0  0  0  0  0  0  0  0  0  0  0  0
   -0.7811    6.5490    0.0000 H   0  0  0  0  0  0  0  0  0  0  0  0
   -3.7811    6.5490    0.0000 H   0  0  0  0  0  0  0  0  0  0  0  0
   -0.7811    5.0490    0.0000 H   0  0  0  0  0  0  0  0  0  0  0  0
   -3.7811    5.0490    0.0000 H   0  0  0  0  0  0  0  0  0  0  0  0
   -3.5801    2.7990    0.0000 H   0  0  0  0  0  0  0  0  0  0  0  0
   -0.2321    4.0981    0.0000 H   0  0  0  0  0  0  0  0  0  0  0  0
   -1.7133    1.8287    0.0000 H   0  0  0  0  0  0  0  0  0  0  0  0
    1.0670    3.3481    0.0000 H   0  0  0  0  0  0  0  0  0  0  0  0
    2.3660    2.5981    0.0000 H   0  0  0  0  0  0  0  0  0  0  0  0
    2.9151    0.5490    0.0000 H   0  0  0  0  0  0  0  0  0  0  0  0
    1.9267   -1.0607    0.0000 H   0  0  0  0  0  0  0  0  0  0  0  0
   -1.6362    0.9191    0.0000 H   0  0  0  0  0  0  0  0  0  0  0  0
    1.0442   -2.5105    0.0000 H   0  0  0  0  0  0  0  0  0  0  0  0
   -0.7704   -3.7116    0.0000 H   0  0  0  0  0  0  0  0  0  0  0  0
   -2.5490   -0.2420    0.0000 H   0  0  0  0  0  0  0  0  0  0  0  0
   -1.8793   -3.9071    0.0000 H   0  0  0  0  0  0  0  0  0  0  0  0
   -3.4822   -4.8086    0.0000 H   0  0  0  0  0  0  0  0  0  0  0  0
   -5.4725   -3.6595    0.0000 H   0  0  0  0  0  0  0  0  0  0  0  0
   -5.4725   -1.6386    0.0000 H   0  0  0  0  0  0  0  0  0  0  0  0
   -3.6579   -0.4375    0.0000 H   0  0  0  0  0  0  0  0  0  0  0  0
  1  2  1  0
  2  3  1  0
  3  4  1  0
  4  5  1  0
  5  6  1  0
  6  7  1  0
  7  8  1  0
  8  9  1  0
  9 10  1  0
 10 11  1  0
 11 12  1  6
 12 13  1  0
 13 14  1  0
 14 15  1  0
 15 16  1  0
 10  7  1  0
 13 11  1  0
 16 14  1  0
 11  9  1  0
  1 17  1  0
  1 18  1  0
  1 19  1  0
  3 20  1  0
  3 21  1  0
  4 22  1  0
  4 23  1  0
  5 24  1  0
  6 25  1  0
  6 26  1  0
  7 27  1  6
  8 28  1  0
  8 29  1  0
  9 30  1  1
 10 31  1  1
 12 32  1  0
 12 33  1  0
 13 34  1  1
 14 35  1  0
 15 36  1  0
 15 37  1  0
 16 38  1  0
 16 39  1  0
M  END
$$$$
