
     RDKit          3D

 36 39  0  0  0  0  0  0  0  0999 V2000
   23.0975  -22.7814  -17.0799 O   0  0  0  0  0  0  0  0  0  0  0  0
   20.6955  -28.6749  -19.8434 I   0  0  0  0  0  0  0  0  0  0  0  0
   24.1625  -23.4344  -17.7794 C   0  0  0  0  0  0  0  0  0  0  0  0
   20.8068  -21.3078  -15.3797 C   0  0  0  0  0  0  0  0  0  0  0  0
   21.0300  -27.1076  -21.5147 C   0  0  0  0  0  0  0  0  0  0  0  0
   24.7262  -24.8906  -17.5636 C   0  0  0  0  0  0  0  0  0  0  0  0
   22.4325  -23.7729  -16.4783 O   0  0  0  0  0  0  0  0  0  0  0  0
   22.2968  -26.1564  -21.9673 C   0  0  0  0  0  0  0  0  0  0  0  0
   23.5458  -24.6270  -13.7181 C   0  0  0  0  0  0  0  0  0  0  0  0
   19.6988  -26.9343  -22.3398 C   0  0  0  0  0  0  0  0  0  0  0  0
   20.6862  -28.0254  -22.6969 C   0  0  0  0  0  0  0  0  0  0  0  0
   21.3209  -27.8532  -24.0634 N   0  0  0  0  0  0  0  0  0  0  0  0
   20.3398  -22.5579  -16.2498 C   0  0  0  0  0  0  0  0  0  0  0  0
   24.2207  -24.4730  -12.4622 O   0  0  0  0  0  0  0  0  0  0  0  0
   25.5469  -23.4664  -14.8144 C   0  0  0  0  0  0  0  0  0  0  0  0
   20.0026  -22.0666  -17.6794 C   0  0  0  0  0  0  0  0  0  0  0  0
   21.1010  -23.8577  -16.3934 C   0  0  0  0  0  0  0  0  0  0  0  0
   24.8713  -25.5328  -16.1644 N   0  0  0  0  0  0  0  0  0  0  0  0
   24.6483  -24.7475  -14.8857 C   0  0  0  0  0  0  0  0  0  0  0  0
   25.1610  -22.6628  -18.7028 C   0  0  0  0  0  0  0  0  0  0  0  0
   20.3554  -25.2076  -16.1740 C   0  0  0  0  0  0  0  0  0  0  0  0
   22.0674  -26.6241  -24.4405 C   0  0  0  0  0  0  0  0  0  0  0  0
   20.4729  -25.8322  -14.8110 C   0  0  0  0  0  0  0  0  0  0  0  0
   22.5846  -28.6396  -24.2199 C   0  0  0  0  0  0  0  0  0  0  0  0
   28.6276  -26.2148  -18.9935 I   0  0  0  0  0  0  0  0  0  0  0  0
   23.4247  -27.3727  -24.5884 C   0  0  0  0  0  0  0  0  0  0  0  0
   27.4342  -24.4299  -21.4296 C   0  0  0  0  0  0  0  0  0  0  0  0
   26.0230  -25.6039  -20.0929 O   0  0  0  0  0  0  0  0  0  0  0  0
   28.7575  -25.0957  -20.8953 C   0  0  0  0  0  0  0  0  0  0  0  0
   25.1868  -23.3777  -20.2362 C   0  0  0  0  0  0  0  0  0  0  0  0
   26.2476  -24.4779  -20.4720 C   0  0  0  0  0  0  0  0  0  0  0  0
   23.5198  -25.3516  -21.2582 C   0  0  0  0  0  0  0  0  0  0  0  0
   22.0727  -25.5462  -23.3246 C   0  0  0  0  0  0  0  0  0  0  0  0
   27.3676  -25.2946  -22.5989 N   0  0  0  0  0  0  0  0  0  0  0  0
   23.7912  -23.7884  -20.9474 C   0  0  0  0  0  0  0  0  0  0  0  0
   28.6676  -25.8421  -22.2367 C   0  0  0  0  0  0  0  0  0  0  0  0
  3  1  1  0
  5  2  1  0
  6  3  1  0
  7  1  1  0
  8  5  1  0
 10  5  1  0
 11  5  1  0
 11 10  1  0
 12 11  1  0
 13  4  1  0
 14  9  1  0
 16 13  1  0
 17  7  1  0
 17 13  1  0
 18  6  1  0
 19  9  1  0
 19 15  1  0
 19 18  1  0
 20  3  1  0
 21 17  1  0
 22 12  1  0
 23 21  1  0
 24 12  1  0
 26 22  1  0
 26 24  1  0
 29 25  1  0
 29 27  1  0
 30 20  1  0
 31 27  1  0
 31 28  2  0
 31 30  1  0
 32  8  1  0
 33  8  1  0
 33 22  1  0
 34 27  1  0
 35 30  1  0
 35 32  1  0
 36 29  1  0
 36 34  1  0
M  END
$$$$
