
     RDKit          2D

 61 65  0  0  0  0  0  0  0  0999 V2000
    6.6377    1.2841    0.0000 C   0  0  0  0  0  0  0  0  0  0  0  0
    6.7498   -0.2117    0.0000 C   0  0  0  0  0  0  0  0  0  0  0  0
    8.2456   -0.0996    0.0000 C   0  0  0  0  0  0  0  0  0  0  0  0
    9.7414    0.0125    0.0000 O   0  0  0  0  0  0  0  0  0  0  0  0
    5.2539   -0.3238    0.0000 C   0  0  0  0  0  0  0  0  0  0  0  0
    5.1419    1.1720    0.0000 C   0  0  0  0  0  0  0  0  0  0  0  0
    3.7581   -0.4359    0.0000 C   0  0  0  0  0  0  0  0  0  0  0  0
    2.2623   -0.5480    0.0000 C   0  0  0  0  0  0  0  0  0  0  0  0
    2.4859    0.9352    0.0000 C   0  0  0  0  0  0  0  0  0  0  0  0
    0.8660    0.0000    0.0000 C   0  0  0  0  0  0  0  0  0  0  0  0
   -0.4330    0.7500    0.0000 C   0  0  0  0  0  0  0  0  0  0  0  0
    0.0800    2.1595    0.0000 C   0  0  0  0  0  0  0  0  0  0  0  0
   -0.8842    3.3086    0.0000 C   0  0  0  0  0  0  0  0  0  0  0  0
    0.5930    3.5691    0.0000 N   0  0  0  0  0  0  0  0  0  0  0  0
    1.5572    2.4200    0.0000 C   0  0  0  0  0  0  0  0  0  0  0  0
   -0.4330   -0.7500    0.0000 C   0  0  0  0  0  0  0  0  0  0  0  0
   -0.6566   -2.2332    0.0000 C   0  0  0  0  0  0  0  0  0  0  0  0
    0.3637   -3.3328    0.0000 C   0  0  0  0  0  0  0  0  0  0  0  0
    1.8595   -3.2207    0.0000 O   0  0  0  0  0  0  0  0  0  0  0  0
    2.7045   -1.9814    0.0000 C   0  0  0  0  0  0  0  0  0  0  0  0
    3.7247   -3.0809    0.0000 O   0  0  0  0  0  0  0  0  0  0  0  0
    4.0035   -1.2314    0.0000 C   0  0  0  0  0  0  0  0  0  0  0  0
    4.7535   -2.5304    0.0000 C   0  0  0  0  0  0  0  0  0  0  0  0
    6.0525   -1.7804    0.0000 C   0  0  0  0  0  0  0  0  0  0  0  0
    6.8025   -3.0794    0.0000 O   0  0  0  0  0  0  0  0  0  0  0  0
    5.3025   -0.4814    0.0000 C   0  0  0  0  0  0  0  0  0  0  0  0
    8.1086    1.5777    0.0000 H   0  0  0  0  0  0  0  0  0  0  0  0
    5.2011    1.7156    0.0000 H   0  0  0  0  0  0  0  0  0  0  0  0
    6.5256    2.7799    0.0000 H   0  0  0  0  0  0  0  0  0  0  0  0
    7.0433   -1.6827    0.0000 H   0  0  0  0  0  0  0  0  0  0  0  0
    8.3166    1.3987    0.0000 H   0  0  0  0  0  0  0  0  0  0  0  0
    8.3577   -1.5954    0.0000 H   0  0  0  0  0  0  0  0  0  0  0  0
   10.3922    1.3639    0.0000 H   0  0  0  0  0  0  0  0  0  0  0  0
    5.7247   -1.7481    0.0000 H   0  0  0  0  0  0  0  0  0  0  0  0
    6.6128    1.4656    0.0000 H   0  0  0  0  0  0  0  0  0  0  0  0
    6.4981    1.8128    0.0000 H   0  0  0  0  0  0  0  0  0  0  0  0
    5.0298    2.6678    0.0000 H   0  0  0  0  0  0  0  0  0  0  0  0
    4.2289   -1.8601    0.0000 H   0  0  0  0  0  0  0  0  0  0  0  0
    3.8292    1.0624    0.0000 H   0  0  0  0  0  0  0  0  0  0  0  0
    3.9792    1.0772    0.0000 H   0  0  0  0  0  0  0  0  0  0  0  0
    1.0410    1.3379    0.0000 H   0  0  0  0  0  0  0  0  0  0  0  0
    2.8886    2.3802    0.0000 H   0  0  0  0  0  0  0  0  0  0  0  0
    1.5169    1.3515    0.0000 H   0  0  0  0  0  0  0  0  0  0  0  0
   -1.9102    1.0105    0.0000 H   0  0  0  0  0  0  0  0  0  0  0  0
   -2.1832    2.5586    0.0000 H   0  0  0  0  0  0  0  0  0  0  0  0
   -1.3972    4.7181    0.0000 H   0  0  0  0  0  0  0  0  0  0  0  0
    2.7552    3.3228    0.0000 H   0  0  0  0  0  0  0  0  0  0  0  0
    2.5414    1.2880    0.0000 H   0  0  0  0  0  0  0  0  0  0  0  0
   -1.9288   -0.6379    0.0000 H   0  0  0  0  0  0  0  0  0  0  0  0
   -1.6463   -3.3604    0.0000 H   0  0  0  0  0  0  0  0  0  0  0  0
   -2.0529   -1.6852    0.0000 H   0  0  0  0  0  0  0  0  0  0  0  0
    0.8058   -4.7662    0.0000 H   0  0  0  0  0  0  0  0  0  0  0  0
   -0.8342   -4.2356    0.0000 H   0  0  0  0  0  0  0  0  0  0  0  0
    3.2826   -4.5143    0.0000 H   0  0  0  0  0  0  0  0  0  0  0  0
    3.5901    0.2105    0.0000 H   0  0  0  0  0  0  0  0  0  0  0  0
    5.5035   -3.8294    0.0000 H   0  0  0  0  0  0  0  0  0  0  0  0
    3.6746   -3.5725    0.0000 H   0  0  0  0  0  0  0  0  0  0  0  0
    7.4333   -1.1943    0.0000 H   0  0  0  0  0  0  0  0  0  0  0  0
    8.3025   -3.0794    0.0000 H   0  0  0  0  0  0  0  0  0  0  0  0
    4.2605    0.5976    0.0000 H   0  0  0  0  0  0  0  0  0  0  0  0
    6.7445   -0.0680    0.0000 H   0  0  0  0  0  0  0  0  0  0  0  0
  1  2  1  0
  2  3  1  0
  3  4  1  0
  2  5  1  0
  5  6  1  0
  5  7  1  0
  8  7  1  6
  8  9  1  0
  8 10  1  0
 10 11  1  0
 11 12  1  0
 12 13  1  0
 13 14  1  0
 14 15  1  0
 11 16  1  0
 16 17  1  0
 17 18  1  0
 18 19  1  0
 19 20  1  0
 20 21  1  6
 20 22  1  0
 22 23  1  0
 23 24  1  0
 24 25  1  0
 24 26  1  0
 20  8  1  0
 26 22  1  0
 16 10  1  0
 14 12  1  0
 15 12  1  0
  1 27  1  0
  1 28  1  0
  1 29  1  0
  2 30  1  1
  3 31  1  0
  3 32  1  0
  4 33  1  0
  5 34  1  6
  6 35  1  0
  6 36  1  0
  6 37  1  0
  7 38  1  0
  7 39  1  0
  9 40  1  0
  9 41  1  0
  9 42  1  0
 10 43  1  6
 11 44  1  1
 13 45  1  0
 13 46  1  0
 15 47  1  0
 15 48  1  0
 16 49  1  6
 17 50  1  0
 17 51  1  0
 18 52  1  0
 18 53  1  0
 21 54  1  0
 22 55  1  1
 23 56  1  0
 23 57  1  0
 24 58  1  1
 25 59  1  0
 26 60  1  0
 26 61  1  0
M  END
$$$$
