
     RDKit          2D

 68 72  0  0  0  0  0  0  0  0999 V2000
    4.9520   -2.1184    0.0000 C   0  0  0  0  0  0  0  0  0  0  0  0
    3.4687   -1.8948    0.0000 C   0  0  0  0  0  0  0  0  0  0  0  0
    1.9855   -1.6713    0.0000 C   0  0  0  0  0  0  0  0  0  0  0  0
    0.5022   -1.4477    0.0000 O   0  0  0  0  0  0  0  0  0  0  0  0
   -0.4330   -2.6205    0.0000 C   0  0  0  0  0  0  0  0  0  0  0  0
    0.7397   -3.5557    0.0000 C   0  0  0  0  0  0  0  0  0  0  0  0
    1.9125   -4.4909    0.0000 C   0  0  0  0  0  0  0  0  0  0  0  0
    2.6946   -5.7709    0.0000 C   0  0  0  0  0  0  0  0  0  0  0  0
    1.1951   -5.8083    0.0000 O   0  0  0  0  0  0  0  0  0  0  0  0
   -1.6058   -1.6852    0.0000 C   0  0  0  0  0  0  0  0  0  0  0  0
   -3.0682   -1.3515    0.0000 N   0  0  0  0  0  0  0  0  0  0  0  0
   -3.7190    0.0000    0.0000 C   0  0  0  0  0  0  0  0  0  0  0  0
   -5.2190    0.0000    0.0000 N   0  0  0  0  0  0  0  0  0  0  0  0
   -5.9690    1.2990    0.0000 C   0  0  0  0  0  0  0  0  0  0  0  0
   -6.7190    2.5981    0.0000 C   0  0  0  0  0  0  0  0  0  0  0  0
   -7.8680    1.6339    0.0000 C   0  0  0  0  0  0  0  0  0  0  0  0
   -9.2776    2.1469    0.0000 O   0  0  0  0  0  0  0  0  0  0  0  0
   -9.5381    3.6241    0.0000 C   0  0  0  0  0  0  0  0  0  0  0  0
   -9.3293    5.1095    0.0000 N   0  0  0  0  0  0  0  0  0  0  0  0
   -7.8521    5.3700    0.0000 C   0  0  0  0  0  0  0  0  0  0  0  0
   -7.1479    4.0456    0.0000 N   0  0  0  0  0  0  0  0  0  0  0  0
   -8.1899    2.9666    0.0000 C   0  0  0  0  0  0  0  0  0  0  0  0
   -3.0682    1.3515    0.0000 N   0  0  0  0  0  0  0  0  0  0  0  0
   -1.6058    1.6852    0.0000 C   0  0  0  0  0  0  0  0  0  0  0  0
   -2.2566    3.0367    0.0000 N   0  0  0  0  0  0  0  0  0  0  0  0
   -0.4330    0.7500    0.0000 N   0  0  0  0  0  0  0  0  0  0  0  0
    0.8660    0.0000    0.0000 C   0  0  0  0  0  0  0  0  0  0  0  0
    1.8302    1.1491    0.0000 C   0  0  0  0  0  0  0  0  0  0  0  0
    2.7944    2.2981    0.0000 C   0  0  0  0  0  0  0  0  0  0  0  0
    3.7586    3.4472    0.0000 C   0  0  0  0  0  0  0  0  0  0  0  0
   -0.4330   -0.7500    0.0000 C   0  0  0  0  0  0  0  0  0  0  0  0
    6.4352   -2.3420    0.0000 H   0  0  0  0  0  0  0  0  0  0  0  0
    5.1755   -0.6352    0.0000 H   0  0  0  0  0  0  0  0  0  0  0  0
    4.7284   -3.6017    0.0000 H   0  0  0  0  0  0  0  0  0  0  0  0
    3.6923   -0.4116    0.0000 H   0  0  0  0  0  0  0  0  0  0  0  0
    3.4276   -3.3943    0.0000 H   0  0  0  0  0  0  0  0  0  0  0  0
    1.9636   -2.4681    0.0000 H   0  0  0  0  0  0  0  0  0  0  0  0
    2.3882   -0.2264    0.0000 H   0  0  0  0  0  0  0  0  0  0  0  0
   -1.3682   -3.7932    0.0000 H   0  0  0  0  0  0  0  0  0  0  0  0
   -0.1955   -4.7285    0.0000 H   0  0  0  0  0  0  0  0  0  0  0  0
    1.4271   -3.1520    0.0000 H   0  0  0  0  0  0  0  0  0  0  0  0
    3.1498   -3.6429    0.0000 H   0  0  0  0  0  0  0  0  0  0  0  0
    4.0909   -5.2229    0.0000 H   0  0  0  0  0  0  0  0  0  0  0  0
    2.9919   -7.2411    0.0000 H   0  0  0  0  0  0  0  0  0  0  0  0
   -2.2566   -3.0367    0.0000 H   0  0  0  0  0  0  0  0  0  0  0  0
   -5.9690   -1.2990    0.0000 H   0  0  0  0  0  0  0  0  0  0  0  0
   -4.7710    2.2018    0.0000 H   0  0  0  0  0  0  0  0  0  0  0  0
   -7.1669    0.3963    0.0000 H   0  0  0  0  0  0  0  0  0  0  0  0
   -5.3094    3.1111    0.0000 H   0  0  0  0  0  0  0  0  0  0  0  0
   -8.6180    0.3349    0.0000 H   0  0  0  0  0  0  0  0  0  0  0  0
   -6.8451    0.5368    0.0000 H   0  0  0  0  0  0  0  0  0  0  0  0
   -8.2655    6.8119    0.0000 H   0  0  0  0  0  0  0  0  0  0  0  0
   -6.4613    5.9319    0.0000 H   0  0  0  0  0  0  0  0  0  0  0  0
   -7.2664    1.7845    0.0000 H   0  0  0  0  0  0  0  0  0  0  0  0
   -8.6533    1.5400    0.0000 H   0  0  0  0  0  0  0  0  0  0  0  0
   -4.0034    2.5242    0.0000 H   0  0  0  0  0  0  0  0  0  0  0  0
   -0.4330    2.6205    0.0000 H   0  0  0  0  0  0  0  0  0  0  0  0
   -1.4116    4.2760    0.0000 H   0  0  0  0  0  0  0  0  0  0  0  0
   -3.7276    3.3303    0.0000 H   0  0  0  0  0  0  0  0  0  0  0  0
    2.0796   -0.8816    0.0000 H   0  0  0  0  0  0  0  0  0  0  0  0
    3.0882    0.3321    0.0000 H   0  0  0  0  0  0  0  0  0  0  0  0
    0.6811    2.1132    0.0000 H   0  0  0  0  0  0  0  0  0  0  0  0
    3.9435    1.3340    0.0000 H   0  0  0  0  0  0  0  0  0  0  0  0
    1.6453    3.2623    0.0000 H   0  0  0  0  0  0  0  0  0  0  0  0
    4.7228    4.5963    0.0000 H   0  0  0  0  0  0  0  0  0  0  0  0
    2.6095    4.4114    0.0000 H   0  0  0  0  0  0  0  0  0  0  0  0
    4.9076    2.4830    0.0000 H   0  0  0  0  0  0  0  0  0  0  0  0
    0.6867   -1.7481    0.0000 H   0  0  0  0  0  0  0  0  0  0  0  0
  1  2  1  0
  2  3  1  0
  3  4  1  0
  4  5  1  0
  5  6  1  0
  6  7  1  0
  7  8  1  0
  8  9  1  0
  5 10  1  0
 10 11  1  0
 11 12  2  0
 12 13  1  0
 13 14  1  0
 14 15  1  0
 15 16  1  0
 16 17  1  0
 17 18  1  0
 18 19  2  0
 19 20  1  0
 20 21  1  0
 21 22  1  0
 12 23  1  0
 23 24  1  0
 24 25  1  0
 24 26  1  0
 26 27  1  0
 27 28  1  0
 28 29  1  0
 29 30  1  0
 27 31  1  0
  9  7  1  0
 31 10  1  0
 21 15  1  0
 31 26  1  0
 22 18  1  0
  1 32  1  0
  1 33  1  0
  1 34  1  0
  2 35  1  0
  2 36  1  0
  3 37  1  0
  3 38  1  0
  5 39  1  0
  6 40  1  0
  6 41  1  0
  7 42  1  0
  8 43  1  0
  8 44  1  0
 10 45  1  0
 13 46  1  0
 14 47  1  0
 14 48  1  0
 15 49  1  0
 16 50  1  0
 16 51  1  0
 20 52  1  0
 20 53  1  0
 22 54  1  0
 22 55  1  0
 23 56  1  0
 24 57  1  0
 25 58  1  0
 25 59  1  0
 27 60  1  0
 28 61  1  0
 28 62  1  0
 29 63  1  0
 29 64  1  0
 30 65  1  0
 30 66  1  0
 30 67  1  0
 31 68  1  0
M  END
$$$$
