
     RDKit          2D

 60 60  0  0  0  0  0  0  0  0999 V2000
   10.0567    8.9321    0.0000 C   0  0  0  0  0  0  0  0  0  0  0  0
    9.0925    7.7830    0.0000 C   0  0  0  0  0  0  0  0  0  0  0  0
    8.1283    6.6339    0.0000 C   0  0  0  0  0  0  0  0  0  0  0  0
    9.2774    5.6697    0.0000 C   0  0  0  0  0  0  0  0  0  0  0  0
    7.1641    5.4849    0.0000 C   0  0  0  0  0  0  0  0  0  0  0  0
    5.6869    5.7453    0.0000 C   0  0  0  0  0  0  0  0  0  0  0  0
    4.7228    4.5963    0.0000 C   0  0  0  0  0  0  0  0  0  0  0  0
    3.7586    3.4472    0.0000 C   0  0  0  0  0  0  0  0  0  0  0  0
    2.7944    2.2981    0.0000 C   0  0  0  0  0  0  0  0  0  0  0  0
    1.8302    1.1491    0.0000 C   0  0  0  0  0  0  0  0  0  0  0  0
    0.8660    0.0000    0.0000 C   0  0  0  0  0  0  0  0  0  0  0  0
   -0.4330    0.7500    0.0000 C   0  0  0  0  0  0  0  0  0  0  0  0
   -0.4330   -0.7500    0.0000 C   0  0  0  0  0  0  0  0  0  0  0  0
    0.0800   -2.1595    0.0000 C   0  0  0  0  0  0  0  0  0  0  0  0
    0.5930   -3.5691    0.0000 C   0  0  0  0  0  0  0  0  0  0  0  0
    1.1061   -4.9786    0.0000 C   0  0  0  0  0  0  0  0  0  0  0  0
    1.6191   -6.3882    0.0000 C   0  0  0  0  0  0  0  0  0  0  0  0
    2.1321   -7.7977    0.0000 C   0  0  0  0  0  0  0  0  0  0  0  0
    2.6452   -9.2072    0.0000 N   0  0  0  0  0  0  0  0  0  0  0  0
   -0.8165   -4.0821    0.0000 N   0  0  0  0  0  0  0  0  0  0  0  0
   -1.0770   -5.5593    0.0000 C   0  0  0  0  0  0  0  0  0  0  0  0
   -1.3374   -7.0365    0.0000 C   0  0  0  0  0  0  0  0  0  0  0  0
   -1.5979   -8.5137    0.0000 N   0  0  0  0  0  0  0  0  0  0  0  0
   11.0209   10.0811    0.0000 H   0  0  0  0  0  0  0  0  0  0  0  0
    8.9076    9.8962    0.0000 H   0  0  0  0  0  0  0  0  0  0  0  0
   11.2058    7.9679    0.0000 H   0  0  0  0  0  0  0  0  0  0  0  0
    7.9434    8.7472    0.0000 H   0  0  0  0  0  0  0  0  0  0  0  0
    9.8354    7.3006    0.0000 H   0  0  0  0  0  0  0  0  0  0  0  0
    6.9793    7.5981    0.0000 H   0  0  0  0  0  0  0  0  0  0  0  0
   10.4265    4.7056    0.0000 H   0  0  0  0  0  0  0  0  0  0  0  0
    9.9252    6.2738    0.0000 H   0  0  0  0  0  0  0  0  0  0  0  0
    8.4605    4.4117    0.0000 H   0  0  0  0  0  0  0  0  0  0  0  0
    7.5015    4.0233    0.0000 H   0  0  0  0  0  0  0  0  0  0  0  0
    5.1739    7.1549    0.0000 H   0  0  0  0  0  0  0  0  0  0  0  0
    5.8718    3.6321    0.0000 H   0  0  0  0  0  0  0  0  0  0  0  0
    3.5737    5.5604    0.0000 H   0  0  0  0  0  0  0  0  0  0  0  0
    4.9076    2.4830    0.0000 H   0  0  0  0  0  0  0  0  0  0  0  0
    2.6095    4.4114    0.0000 H   0  0  0  0  0  0  0  0  0  0  0  0
    1.8534   -0.9207    0.0000 H   0  0  0  0  0  0  0  0  0  0  0  0
   -1.9102    1.0105    0.0000 H   0  0  0  0  0  0  0  0  0  0  0  0
    0.0800    2.1595    0.0000 H   0  0  0  0  0  0  0  0  0  0  0  0
   -1.9102   -1.0105    0.0000 H   0  0  0  0  0  0  0  0  0  0  0  0
   -1.3815   -2.4969    0.0000 H   0  0  0  0  0  0  0  0  0  0  0  0
    1.3954   -1.8559    0.0000 H   0  0  0  0  0  0  0  0  0  0  0  0
    2.0026   -3.0560    0.0000 H   0  0  0  0  0  0  0  0  0  0  0  0
    2.5156   -4.4656    0.0000 H   0  0  0  0  0  0  0  0  0  0  0  0
    0.5045   -5.5017    0.0000 H   0  0  0  0  0  0  0  0  0  0  0  0
    0.2826   -7.0692    0.0000 H   0  0  0  0  0  0  0  0  0  0  0  0
    3.0286   -5.8751    0.0000 H   0  0  0  0  0  0  0  0  0  0  0  0
    3.5417   -7.2847    0.0000 H   0  0  0  0  0  0  0  0  0  0  0  0
    0.7226   -8.3107    0.0000 H   0  0  0  0  0  0  0  0  0  0  0  0
    1.6810  -10.3563    0.0000 H   0  0  0  0  0  0  0  0  0  0  0  0
    4.1224   -9.4677    0.0000 H   0  0  0  0  0  0  0  0  0  0  0  0
   -2.0745   -3.2652    0.0000 H   0  0  0  0  0  0  0  0  0  0  0  0
   -0.3146   -5.7924    0.0000 H   0  0  0  0  0  0  0  0  0  0  0  0
   -2.5542   -5.2988    0.0000 H   0  0  0  0  0  0  0  0  0  0  0  0
   -2.8146   -6.7761    0.0000 H   0  0  0  0  0  0  0  0  0  0  0  0
    0.0970   -7.4751    0.0000 H   0  0  0  0  0  0  0  0  0  0  0  0
   -3.0074   -9.0268    0.0000 H   0  0  0  0  0  0  0  0  0  0  0  0
   -0.4488   -9.4779    0.0000 H   0  0  0  0  0  0  0  0  0  0  0  0
  1  2  1  0
  2  3  1  0
  3  4  1  0
  3  5  1  0
  5  6  2  3
  6  7  1  0
  7  8  1  0
  8  9  1  0
  9 10  3  0
 10 11  1  0
 11 12  1  0
 12 13  1  0
 13 14  1  0
 14 15  1  0
 15 16  1  0
 16 17  1  0
 17 18  1  0
 18 19  1  0
 15 20  1  0
 20 21  1  0
 21 22  1  0
 22 23  1  0
 13 11  1  0
  1 24  1  0
  1 25  1  0
  1 26  1  0
  2 27  1  0
  2 28  1  0
  3 29  1  6
  4 30  1  0
  4 31  1  0
  4 32  1  0
  5 33  1  0
  6 34  1  0
  7 35  1  0
  7 36  1  0
  8 37  1  0
  8 38  1  0
 11 39  1  1
 12 40  1  0
 12 41  1  0
 13 42  1  1
 14 43  1  0
 14 44  1  0
 15 45  1  6
 16 46  1  0
 16 47  1  0
 17 48  1  0
 17 49  1  0
 18 50  1  0
 18 51  1  0
 19 52  1  0
 19 53  1  0
 20 54  1  0
 21 55  1  0
 21 56  1  0
 22 57  1  0
 22 58  1  0
 23 59  1  0
 23 60  1  0
M  END
$$$$
