
     RDKit          2D

 23 24  0  0  0  0  0  0  0  0999 V2000
    4.7846    0.6281    0.0000 O   0  0  0  0  0  0  0  0  0  0  0  0
    3.3074    0.8886    0.0000 C   0  0  0  0  0  0  0  0  0  0  0  0
    1.8302    1.1491    0.0000 N   0  0  0  0  0  0  0  0  0  0  0  0
    0.8660    0.0000    0.0000 C   0  0  0  0  0  0  0  0  0  0  0  0
   -0.4330    0.7500    0.0000 N   0  0  0  0  0  0  0  0  0  0  0  0
   -0.4330   -0.7500    0.0000 C   0  0  0  0  0  0  0  0  0  0  0  0
    0.0800   -2.1595    0.0000 N   0  0  0  0  0  0  0  0  0  0  0  0
   -0.8842   -3.3086    0.0000 C   0  0  0  0  0  0  0  0  0  0  0  0
   -1.3972   -4.7181    0.0000 C   0  0  0  0  0  0  0  0  0  0  0  0
    0.0800   -4.4577    0.0000 C   0  0  0  0  0  0  0  0  0  0  0  0
    5.2977   -0.7814    0.0000 H   0  0  0  0  0  0  0  0  0  0  0  0
    3.5679    2.3658    0.0000 H   0  0  0  0  0  0  0  0  0  0  0  0
    3.0469   -0.5886    0.0000 H   0  0  0  0  0  0  0  0  0  0  0  0
    1.3172    2.5586    0.0000 H   0  0  0  0  0  0  0  0  0  0  0  0
    1.8302   -1.1491    0.0000 H   0  0  0  0  0  0  0  0  0  0  0  0
   -1.1830    2.0490    0.0000 H   0  0  0  0  0  0  0  0  0  0  0  0
   -1.9102   -1.0105    0.0000 H   0  0  0  0  0  0  0  0  0  0  0  0
    1.5572   -2.4200    0.0000 H   0  0  0  0  0  0  0  0  0  0  0  0
   -2.1832   -2.5586    0.0000 H   0  0  0  0  0  0  0  0  0  0  0  0
   -2.8744   -4.4577    0.0000 H   0  0  0  0  0  0  0  0  0  0  0  0
   -1.3972   -6.2181    0.0000 H   0  0  0  0  0  0  0  0  0  0  0  0
    0.5930   -5.8672    0.0000 H   0  0  0  0  0  0  0  0  0  0  0  0
    1.3791   -3.7077    0.0000 H   0  0  0  0  0  0  0  0  0  0  0  0
  1  2  1  0
  2  3  1  0
  3  4  1  0
  4  5  1  0
  5  6  1  0
  6  7  1  0
  7  8  1  0
  8  9  1  0
  9 10  1  0
  6  4  1  0
 10  8  1  0
  1 11  1  0
  2 12  1  0
  2 13  1  0
  3 14  1  0
  4 15  1  1
  5 16  1  0
  6 17  1  1
  7 18  1  0
  8 19  1  0
  9 20  1  0
  9 21  1  0
 10 22  1  0
 10 23  1  0
M  END
$$$$
