
     RDKit          2D

 53 60  0  0  0  0  0  0  0  0999 V2000
    8.5984    3.9681    0.0000 C   0  0  0  0  0  0  0  0  0  0  0  0
    7.2993    4.7181    0.0000 C   0  0  0  0  0  0  0  0  0  0  0  0
    6.0003    5.4681    0.0000 C   0  0  0  0  0  0  0  0  0  0  0  0
    4.7013    6.2181    0.0000 C   0  0  0  0  0  0  0  0  0  0  0  0
    3.4022    6.9681    0.0000 C   0  0  0  0  0  0  0  0  0  0  0  0
    2.1032    7.7181    0.0000 C   0  0  0  0  0  0  0  0  0  0  0  0
    0.8041    8.4681    0.0000 C   0  0  0  0  0  0  0  0  0  0  0  0
    0.8041    9.9681    0.0000 C   0  0  0  0  0  0  0  0  0  0  0  0
   -0.4949    9.2181    0.0000 C   0  0  0  0  0  0  0  0  0  0  0  0
   -0.4949    7.7181    0.0000 C   0  0  0  0  0  0  0  0  0  0  0  0
    0.0181    6.3086    0.0000 N   0  0  0  0  0  0  0  0  0  0  0  0
    1.4954    6.0481    0.0000 C   0  0  0  0  0  0  0  0  0  0  0  0
   -0.9460    5.1595    0.0000 N   0  0  0  0  0  0  0  0  0  0  0  0
   -0.4330    3.7500    0.0000 C   0  0  0  0  0  0  0  0  0  0  0  0
   -1.7321    3.0000    0.0000 C   0  0  0  0  0  0  0  0  0  0  0  0
   -1.7321    1.5000    0.0000 C   0  0  0  0  0  0  0  0  0  0  0  0
   -0.4330    2.2500    0.0000 C   0  0  0  0  0  0  0  0  0  0  0  0
   -0.4330    0.7500    0.0000 C   0  0  0  0  0  0  0  0  0  0  0  0
    0.8660    0.0000    0.0000 O   0  0  0  0  0  0  0  0  0  0  0  0
   -0.4330   -0.7500    0.0000 C   0  0  0  0  0  0  0  0  0  0  0  0
   -0.4330   -2.2500    0.0000 C   0  0  0  0  0  0  0  0  0  0  0  0
   -1.7321   -3.0000    0.0000 C   0  0  0  0  0  0  0  0  0  0  0  0
   -1.2190   -4.4095    0.0000 N   0  0  0  0  0  0  0  0  0  0  0  0
   -1.7321   -1.5000    0.0000 C   0  0  0  0  0  0  0  0  0  0  0  0
    9.8974    3.2181    0.0000 H   0  0  0  0  0  0  0  0  0  0  0  0
    7.8484    2.6691    0.0000 H   0  0  0  0  0  0  0  0  0  0  0  0
    9.3484    5.2672    0.0000 H   0  0  0  0  0  0  0  0  0  0  0  0
    6.5493    3.4191    0.0000 H   0  0  0  0  0  0  0  0  0  0  0  0
    8.0493    6.0172    0.0000 H   0  0  0  0  0  0  0  0  0  0  0  0
    6.7503    6.7672    0.0000 H   0  0  0  0  0  0  0  0  0  0  0  0
    5.2503    4.1691    0.0000 H   0  0  0  0  0  0  0  0  0  0  0  0
    3.9513    4.9191    0.0000 H   0  0  0  0  0  0  0  0  0  0  0  0
    5.4513    7.5172    0.0000 H   0  0  0  0  0  0  0  0  0  0  0  0
    4.1522    8.2672    0.0000 H   0  0  0  0  0  0  0  0  0  0  0  0
    3.0908    6.2343    0.0000 H   0  0  0  0  0  0  0  0  0  0  0  0
    2.8532    9.0172    0.0000 H   0  0  0  0  0  0  0  0  0  0  0  0
    1.8320    6.7721    0.0000 H   0  0  0  0  0  0  0  0  0  0  0  0
    2.2814   10.2286    0.0000 H   0  0  0  0  0  0  0  0  0  0  0  0
    0.2911   11.3777    0.0000 H   0  0  0  0  0  0  0  0  0  0  0  0
   -1.7939    9.9681    0.0000 H   0  0  0  0  0  0  0  0  0  0  0  0
   -1.9721    7.4577    0.0000 H   0  0  0  0  0  0  0  0  0  0  0  0
    2.2577    5.8150    0.0000 H   0  0  0  0  0  0  0  0  0  0  0  0
    2.1055    7.4184    0.0000 H   0  0  0  0  0  0  0  0  0  0  0  0
    1.4169    4.5502    0.0000 H   0  0  0  0  0  0  0  0  0  0  0  0
   -2.4233    5.4200    0.0000 H   0  0  0  0  0  0  0  0  0  0  0  0
    1.0649    3.8285    0.0000 H   0  0  0  0  0  0  0  0  0  0  0  0
   -3.0311    3.7500    0.0000 H   0  0  0  0  0  0  0  0  0  0  0  0
   -3.0311    0.7500    0.0000 H   0  0  0  0  0  0  0  0  0  0  0  0
    0.8660   -3.0000    0.0000 H   0  0  0  0  0  0  0  0  0  0  0  0
   -3.2093   -3.2605    0.0000 H   0  0  0  0  0  0  0  0  0  0  0  0
   -2.1832   -5.5586    0.0000 H   0  0  0  0  0  0  0  0  0  0  0  0
    0.2582   -4.6700    0.0000 H   0  0  0  0  0  0  0  0  0  0  0  0
   -3.0311   -0.7500    0.0000 H   0  0  0  0  0  0  0  0  0  0  0  0
  1  2  1  0
  2  3  1  0
  3  4  1  0
  4  5  1  0
  5  6  1  0
  6  7  1  0
  7  8  1  0
  8  9  1  0
  9 10  1  0
 10 11  1  0
 11 12  1  0
 11 13  1  0
 13 14  1  0
 14 15  1  0
 15 16  1  0
 16 17  1  0
 17 18  1  0
 18 19  1  0
 19 20  1  0
 20 21  1  0
 21 22  1  0
 22 23  1  0
 22 24  1  0
  9  7  1  0
 17 14  1  0
 20 18  1  0
 24 21  1  0
 10  7  1  0
 17 15  1  0
 24 20  1  0
 18 16  1  0
  1 25  1  0
  1 26  1  0
  1 27  1  0
  2 28  1  0
  2 29  1  0
  3 30  1  0
  3 31  1  0
  4 32  1  0
  4 33  1  0
  5 34  1  0
  5 35  1  0
  6 36  1  0
  6 37  1  0
  8 38  1  0
  8 39  1  0
  9 40  1  0
 10 41  1  0
 12 42  1  0
 12 43  1  0
 12 44  1  0
 13 45  1  0
 14 46  1  0
 15 47  1  0
 16 48  1  0
 21 49  1  0
 22 50  1  0
 23 51  1  0
 23 52  1  0
 24 53  1  0
M  END
$$$$
