
     RDKit          2D

 43 45  0  0  0  0  0  0  0  0999 V2000
   -5.8443   -5.6265    0.0000 C   0  0  0  0  0  0  0  0  0  0  0  0
   -7.3182   -5.3476    0.0000 C   0  0  0  0  0  0  0  0  0  0  0  0
   -8.7920   -5.0688    0.0000 C   0  0  0  0  0  0  0  0  0  0  0  0
   -7.0393   -3.8738    0.0000 C   0  0  0  0  0  0  0  0  0  0  0  0
   -6.7604   -2.3999    0.0000 C   0  0  0  0  0  0  0  0  0  0  0  0
   -6.4816   -0.9261    0.0000 C   0  0  0  0  0  0  0  0  0  0  0  0
   -6.2027    0.5478    0.0000 C   0  0  0  0  0  0  0  0  0  0  0  0
   -7.3397    1.5262    0.0000 O   0  0  0  0  0  0  0  0  0  0  0  0
   -4.7869    1.0432    0.0000 C   0  0  0  0  0  0  0  0  0  0  0  0
   -3.3710    1.5386    0.0000 C   0  0  0  0  0  0  0  0  0  0  0  0
   -3.2031    0.0480    0.0000 O   0  0  0  0  0  0  0  0  0  0  0  0
   -1.9330   -0.7500    0.0000 C   0  0  0  0  0  0  0  0  0  0  0  0
   -1.9330    0.7500    0.0000 O   0  0  0  0  0  0  0  0  0  0  0  0
   -0.4330    0.7500    0.0000 C   0  0  0  0  0  0  0  0  0  0  0  0
   -0.8198    2.4313    0.0000 C   0  0  0  0  0  0  0  0  0  0  0  0
   -2.3104    2.5993    0.0000 C   0  0  0  0  0  0  0  0  0  0  0  0
   -3.5805    3.3973    0.0000 C   0  0  0  0  0  0  0  0  0  0  0  0
    0.8660    0.0000    0.0000 O   0  0  0  0  0  0  0  0  0  0  0  0
   -0.4330   -0.7500    0.0000 C   0  0  0  0  0  0  0  0  0  0  0  0
   -4.3705   -5.9054    0.0000 H   0  0  0  0  0  0  0  0  0  0  0  0
   -6.1232   -7.1003    0.0000 H   0  0  0  0  0  0  0  0  0  0  0  0
   -5.5748   -4.7828    0.0000 H   0  0  0  0  0  0  0  0  0  0  0  0
   -7.5970   -6.8215    0.0000 H   0  0  0  0  0  0  0  0  0  0  0  0
  -10.2659   -4.7899    0.0000 H   0  0  0  0  0  0  0  0  0  0  0  0
   -9.0709   -6.5426    0.0000 H   0  0  0  0  0  0  0  0  0  0  0  0
   -8.7347   -4.1849    0.0000 H   0  0  0  0  0  0  0  0  0  0  0  0
   -7.8830   -3.6042    0.0000 H   0  0  0  0  0  0  0  0  0  0  0  0
   -6.1554   -3.9311    0.0000 H   0  0  0  0  0  0  0  0  0  0  0  0
   -5.2866   -2.6788    0.0000 H   0  0  0  0  0  0  0  0  0  0  0  0
   -8.2343   -2.1211    0.0000 H   0  0  0  0  0  0  0  0  0  0  0  0
   -7.9554   -0.6472    0.0000 H   0  0  0  0  0  0  0  0  0  0  0  0
   -5.0077   -1.2049    0.0000 H   0  0  0  0  0  0  0  0  0  0  0  0
   -4.2915   -0.3726    0.0000 H   0  0  0  0  0  0  0  0  0  0  0  0
   -5.1480    2.0753    0.0000 H   0  0  0  0  0  0  0  0  0  0  0  0
   -4.1380    2.4809    0.0000 H   0  0  0  0  0  0  0  0  0  0  0  0
   -2.9937   -1.8107    0.0000 H   0  0  0  0  0  0  0  0  0  0  0  0
   -0.8048    3.9313    0.0000 H   0  0  0  0  0  0  0  0  0  0  0  0
    0.5960    2.9267    0.0000 H   0  0  0  0  0  0  0  0  0  0  0  0
   -1.9912    4.0649    0.0000 H   0  0  0  0  0  0  0  0  0  0  0  0
   -4.8506    4.1954    0.0000 H   0  0  0  0  0  0  0  0  0  0  0  0
   -2.7824    4.6674    0.0000 H   0  0  0  0  0  0  0  0  0  0  0  0
   -4.1396    2.7104    0.0000 H   0  0  0  0  0  0  0  0  0  0  0  0
   -0.0448   -2.1989    0.0000 H   0  0  0  0  0  0  0  0  0  0  0  0
  1  2  1  0
  2  3  1  0
  2  4  1  0
  4  5  1  0
  5  6  1  0
  6  7  1  0
  7  8  2  0
  7  9  1  0
  9 10  1  0
 10 11  1  0
 11 12  1  0
 12 13  1  0
 13 14  1  0
 14 15  1  0
 15 16  1  0
 16 17  1  0
 14 18  1  6
 18 19  1  0
 16 10  1  0
 19 12  1  0
 19 14  1  0
  1 20  1  0
  1 21  1  0
  1 22  1  0
  2 23  1  0
  3 24  1  0
  3 25  1  0
  3 26  1  0
  4 27  1  0
  4 28  1  0
  5 29  1  0
  5 30  1  0
  6 31  1  0
  6 32  1  0
  9 33  1  0
  9 34  1  0
 10 35  1  1
 12 36  1  6
 15 37  1  0
 15 38  1  0
 16 39  1  1
 17 40  1  0
 17 41  1  0
 17 42  1  0
 19 43  1  1
M  END
$$$$
