
     RDKit          2D

 40 43  0  0  0  0  0  0  0  0999 V2000
    7.6361   -5.3912    0.0000 F   0  0  0  0  0  0  0  0  0  0  0  0
    6.2503   -4.8172    0.0000 C   0  0  0  0  0  0  0  0  0  0  0  0
    5.4444   -6.0822    0.0000 C   0  0  0  0  0  0  0  0  0  0  0  0
    4.7517   -4.7517    0.0000 C   0  0  0  0  0  0  0  0  0  0  0  0
    4.5559   -3.2646    0.0000 C   0  0  0  0  0  0  0  0  0  0  0  0
    6.0431   -3.0688    0.0000 C   0  0  0  0  0  0  0  0  0  0  0  0
    5.8473   -1.5816    0.0000 C   0  0  0  0  0  0  0  0  0  0  0  0
    4.9342   -0.3916    0.0000 C   0  0  0  0  0  0  0  0  0  0  0  0
    4.3602   -1.7774    0.0000 C   0  0  0  0  0  0  0  0  0  0  0  0
    2.8730   -1.5816    0.0000 C   0  0  0  0  0  0  0  0  0  0  0  0
    1.3858   -1.3858    0.0000 C   0  0  0  0  0  0  0  0  0  0  0  0
    1.9598    0.0000    0.0000 N   0  0  0  0  0  0  0  0  0  0  0  0
    1.3858    1.3858    0.0000 C   0  0  0  0  0  0  0  0  0  0  0  0
    0.0000    1.9598    0.0000 C   0  0  0  0  0  0  0  0  0  0  0  0
   -1.3858    1.3858    0.0000 N   0  0  0  0  0  0  0  0  0  0  0  0
   -1.9598    0.0000    0.0000 O   0  0  0  0  0  0  0  0  0  0  0  0
   -1.3858   -1.3858    0.0000 C   0  0  0  0  0  0  0  0  0  0  0  0
   -0.0000   -1.9598    0.0000 N   0  0  0  0  0  0  0  0  0  0  0  0
    6.6895   -3.9364    0.0000 H   0  0  0  0  0  0  0  0  0  0  0  0
    4.2543   -6.9954    0.0000 H   0  0  0  0  0  0  0  0  0  0  0  0
    6.5503   -7.0956    0.0000 H   0  0  0  0  0  0  0  0  0  0  0  0
    3.3212   -5.2028    0.0000 H   0  0  0  0  0  0  0  0  0  0  0  0
    3.1037   -3.6402    0.0000 H   0  0  0  0  0  0  0  0  0  0  0  0
    7.2477   -2.9102    0.0000 H   0  0  0  0  0  0  0  0  0  0  0  0
    6.3353   -3.8105    0.0000 H   0  0  0  0  0  0  0  0  0  0  0  0
    7.2331   -1.0076    0.0000 H   0  0  0  0  0  0  0  0  0  0  0  0
    5.9476    0.7143    0.0000 H   0  0  0  0  0  0  0  0  0  0  0  0
    3.9017    0.6965    0.0000 H   0  0  0  0  0  0  0  0  0  0  0  0
    3.0688   -0.0944    0.0000 H   0  0  0  0  0  0  0  0  0  0  0  0
    2.4974   -3.0338    0.0000 H   0  0  0  0  0  0  0  0  0  0  0  0
    1.5816   -2.8730    0.0000 H   0  0  0  0  0  0  0  0  0  0  0  0
    3.4153    0.3630    0.0000 H   0  0  0  0  0  0  0  0  0  0  0  0
    1.7614    2.8380    0.0000 H   0  0  0  0  0  0  0  0  0  0  0  0
    2.8730    1.5816    0.0000 H   0  0  0  0  0  0  0  0  0  0  0  0
   -0.9131    3.1499    0.0000 H   0  0  0  0  0  0  0  0  0  0  0  0
    0.7613    3.2523    0.0000 H   0  0  0  0  0  0  0  0  0  0  0  0
   -2.4465    2.4465    0.0000 H   0  0  0  0  0  0  0  0  0  0  0  0
   -1.5816   -2.8730    0.0000 H   0  0  0  0  0  0  0  0  0  0  0  0
   -2.8730   -1.5816    0.0000 H   0  0  0  0  0  0  0  0  0  0  0  0
   -0.0000   -3.4598    0.0000 H   0  0  0  0  0  0  0  0  0  0  0  0
  1  2  1  0
  2  3  1  0
  3  4  1  0
  4  5  1  0
  5  6  1  0
  6  7  1  0
  7  8  1  0
  8  9  1  0
  9 10  1  0
 10 11  1  0
 11 12  1  0
 12 13  1  0
 13 14  1  0
 14 15  1  0
 15 16  1  0
 16 17  1  0
 17 18  1  0
  4  2  1  0
  9  5  1  0
 18 11  1  0
  9  7  1  0
  2 19  1  0
  3 20  1  0
  3 21  1  0
  4 22  1  0
  5 23  1  0
  6 24  1  0
  6 25  1  0
  7 26  1  0
  8 27  1  0
  8 28  1  0
 10 29  1  0
 10 30  1  0
 11 31  1  0
 12 32  1  0
 13 33  1  0
 13 34  1  0
 14 35  1  0
 14 36  1  0
 15 37  1  0
 17 38  1  0
 17 39  1  0
 18 40  1  0
M  END
$$$$
