
     RDKit          2D

 24 28  0  0  0  0  0  0  0  0999 V2000
    5.0702   -3.0926    0.0000 F   0  0  0  0  0  0  0  0  0  0  0  0
    4.0095   -2.0319    0.0000 C   0  0  0  0  0  0  0  0  0  0  0  0
    2.7808   -2.8923    0.0000 F   0  0  0  0  0  0  0  0  0  0  0  0
    4.8699   -0.8032    0.0000 O   0  0  0  0  0  0  0  0  0  0  0  0
    3.3756   -0.6724    0.0000 C   0  0  0  0  0  0  0  0  0  0  0  0
    1.9267   -1.0607    0.0000 O   0  0  0  0  0  0  0  0  0  0  0  0
    0.8660    0.0000    0.0000 C   0  0  0  0  0  0  0  0  0  0  0  0
    1.6160    1.2990    0.0000 C   0  0  0  0  0  0  0  0  0  0  0  0
    0.3170    2.0490    0.0000 C   0  0  0  0  0  0  0  0  0  0  0  0
   -0.4330    0.7500    0.0000 C   0  0  0  0  0  0  0  0  0  0  0  0
   -0.4330   -0.7500    0.0000 C   0  0  0  0  0  0  0  0  0  0  0  0
   -0.4330   -2.2500    0.0000 C   0  0  0  0  0  0  0  0  0  0  0  0
   -1.7321   -3.0000    0.0000 C   0  0  0  0  0  0  0  0  0  0  0  0
   -1.7321   -1.5000    0.0000 C   0  0  0  0  0  0  0  0  0  0  0  0
    3.4138    0.4204    0.0000 H   0  0  0  0  0  0  0  0  0  0  0  0
    2.3660    2.5981    0.0000 H   0  0  0  0  0  0  0  0  0  0  0  0
    2.6226    0.8718    0.0000 H   0  0  0  0  0  0  0  0  0  0  0  0
   -0.9821    2.7990    0.0000 H   0  0  0  0  0  0  0  0  0  0  0  0
    1.0670    3.3481    0.0000 H   0  0  0  0  0  0  0  0  0  0  0  0
   -1.8819    1.1382    0.0000 H   0  0  0  0  0  0  0  0  0  0  0  0
    0.8660   -3.0000    0.0000 H   0  0  0  0  0  0  0  0  0  0  0  0
   -1.2190   -4.4095    0.0000 H   0  0  0  0  0  0  0  0  0  0  0  0
   -3.2093   -3.2605    0.0000 H   0  0  0  0  0  0  0  0  0  0  0  0
   -3.0311   -0.7500    0.0000 H   0  0  0  0  0  0  0  0  0  0  0  0
  1  2  1  0
  2  3  1  0
  2  4  1  0
  4  5  1  0
  5  6  1  0
  6  7  1  0
  7  8  1  0
  8  9  1  0
  9 10  1  0
 10 11  1  0
 11 12  1  0
 12 13  1  0
 13 14  1  0
  5  2  1  0
 10  7  1  0
 14 11  1  0
 11  7  1  0
 14 12  1  0
  5 15  1  0
  8 16  1  0
  8 17  1  0
  9 18  1  0
  9 19  1  0
 10 20  1  0
 12 21  1  0
 13 22  1  0
 13 23  1  0
 14 24  1  0
M  END
$$$$
