
     RDKit          2D

 61 68  0  0  0  0  0  0  0  0999 V2000
  -10.5807   -0.7088    0.0000 C   0  0  0  0  0  0  0  0  0  0  0  0
   -9.1843   -0.1608    0.0000 C   0  0  0  0  0  0  0  0  0  0  0  0
   -7.7880    0.3872    0.0000 C   0  0  0  0  0  0  0  0  0  0  0  0
   -6.3917    0.9352    0.0000 N   0  0  0  0  0  0  0  0  0  0  0  0
   -5.2190    0.0000    0.0000 C   0  0  0  0  0  0  0  0  0  0  0  0
   -4.5682    1.3515    0.0000 C   0  0  0  0  0  0  0  0  0  0  0  0
   -3.1058    1.6852    0.0000 N   0  0  0  0  0  0  0  0  0  0  0  0
   -1.9330    0.7500    0.0000 C   0  0  0  0  0  0  0  0  0  0  0  0
   -1.9330    2.2500    0.0000 C   0  0  0  0  0  0  0  0  0  0  0  0
   -0.4330    2.2500    0.0000 N   0  0  0  0  0  0  0  0  0  0  0  0
   -0.4330    0.7500    0.0000 C   0  0  0  0  0  0  0  0  0  0  0  0
    0.8660    0.0000    0.0000 C   0  0  0  0  0  0  0  0  0  0  0  0
   -0.4330   -0.7500    0.0000 C   0  0  0  0  0  0  0  0  0  0  0  0
   -0.0448   -2.1989    0.0000 C   0  0  0  0  0  0  0  0  0  0  0  0
   -1.1054   -3.2595    0.0000 C   0  0  0  0  0  0  0  0  0  0  0  0
    0.3434   -3.6478    0.0000 C   0  0  0  0  0  0  0  0  0  0  0  0
    1.4041   -2.5871    0.0000 C   0  0  0  0  0  0  0  0  0  0  0  0
    2.7406   -3.2681    0.0000 C   0  0  0  0  0  0  0  0  0  0  0  0
    3.2782   -1.8677    0.0000 C   0  0  0  0  0  0  0  0  0  0  0  0
    2.5060   -4.7496    0.0000 C   0  0  0  0  0  0  0  0  0  0  0  0
    1.0244   -4.9843    0.0000 C   0  0  0  0  0  0  0  0  0  0  0  0
   -0.2336   -5.8012    0.0000 C   0  0  0  0  0  0  0  0  0  0  0  0
    1.1029   -6.4822    0.0000 C   0  0  0  0  0  0  0  0  0  0  0  0
    0.6644   -7.9167    0.0000 C   0  0  0  0  0  0  0  0  0  0  0  0
   -1.9330   -0.7500    0.0000 Sb  0  0  0  0  0  3  0  0  0  0  0  0
   -3.1058   -1.6852    0.0000 O   0  0  0  0  0  0  0  0  0  0  0  0
   -4.5682   -1.3515    0.0000 C   0  0  0  0  0  0  0  0  0  0  0  0
  -11.9770   -1.2568    0.0000 H   0  0  0  0  0  0  0  0  0  0  0  0
  -10.0326   -2.1051    0.0000 H   0  0  0  0  0  0  0  0  0  0  0  0
  -11.1287    0.6875    0.0000 H   0  0  0  0  0  0  0  0  0  0  0  0
   -8.6363   -1.5571    0.0000 H   0  0  0  0  0  0  0  0  0  0  0  0
   -9.7324    1.2355    0.0000 H   0  0  0  0  0  0  0  0  0  0  0  0
   -7.4143   -1.0655    0.0000 H   0  0  0  0  0  0  0  0  0  0  0  0
   -8.3360    1.7835    0.0000 H   0  0  0  0  0  0  0  0  0  0  0  0
   -6.3648    1.9190    0.0000 H   0  0  0  0  0  0  0  0  0  0  0  0
   -6.3917   -0.9352    0.0000 H   0  0  0  0  0  0  0  0  0  0  0  0
   -4.5682    2.8515    0.0000 H   0  0  0  0  0  0  0  0  0  0  0  0
   -5.3854    1.8998    0.0000 H   0  0  0  0  0  0  0  0  0  0  0  0
   -2.8054    3.0014    0.0000 H   0  0  0  0  0  0  0  0  0  0  0  0
   -1.9330    3.7500    0.0000 H   0  0  0  0  0  0  0  0  0  0  0  0
   -2.7065    2.4429    0.0000 H   0  0  0  0  0  0  0  0  0  0  0  0
    0.6276    3.3107    0.0000 H   0  0  0  0  0  0  0  0  0  0  0  0
    1.8302    1.1491    0.0000 H   0  0  0  0  0  0  0  0  0  0  0  0
    1.9631   -1.0230    0.0000 H   0  0  0  0  0  0  0  0  0  0  0  0
   -2.3342   -2.3992    0.0000 H   0  0  0  0  0  0  0  0  0  0  0  0
   -1.9004   -4.5316    0.0000 H   0  0  0  0  0  0  0  0  0  0  0  0
    2.1083   -1.2627    0.0000 H   0  0  0  0  0  0  0  0  0  0  0  0
    4.1895   -3.6563    0.0000 H   0  0  0  0  0  0  0  0  0  0  0  0
    3.8157   -0.4674    0.0000 H   0  0  0  0  0  0  0  0  0  0  0  0
    4.6026   -2.5720    0.0000 H   0  0  0  0  0  0  0  0  0  0  0  0
    4.7336   -2.2306    0.0000 H   0  0  0  0  0  0  0  0  0  0  0  0
    4.0039   -4.8281    0.0000 H   0  0  0  0  0  0  0  0  0  0  0  0
    2.7665   -6.2268    0.0000 H   0  0  0  0  0  0  0  0  0  0  0  0
   -1.3827   -4.8371    0.0000 H   0  0  0  0  0  0  0  0  0  0  0  0
   -1.2756   -6.8802    0.0000 H   0  0  0  0  0  0  0  0  0  0  0  0
    2.5584   -6.8452    0.0000 H   0  0  0  0  0  0  0  0  0  0  0  0
    0.2258   -9.3511    0.0000 H   0  0  0  0  0  0  0  0  0  0  0  0
    2.0988   -8.3552    0.0000 H   0  0  0  0  0  0  0  0  0  0  0  0
   -0.8128   -7.6563    0.0000 H   0  0  0  0  0  0  0  0  0  0  0  0
   -5.9790   -1.8610    0.0000 H   0  0  0  0  0  0  0  0  0  0  0  0
   -4.5682   -2.8515    0.0000 H   0  0  0  0  0  0  0  0  0  0  0  0
  1  2  1  0
  2  3  1  0
  3  4  1  0
  4  5  1  0
  5  6  1  0
  6  7  1  0
  8  7  1  1
  8  9  1  0
  9 10  1  0
 11 10  1  6
 11 12  1  0
 13 12  1  6
 13 14  1  0
 14 15  1  6
 16 15  1  1
 16 17  1  0
 17 18  1  0
 18 19  1  0
 18 20  1  0
 21 20  1  1
 21 22  1  0
 22 23  1  0
 23 24  1  0
 13 25  1  0
 25 26  1  0
 26 27  1  0
 27  5  1  0
 11  8  1  0
 16 14  1  0
 23 21  1  0
 25  8  1  0
 13 11  1  0
 17 14  1  0
 21 16  1  0
  1 28  1  0
  1 29  1  0
  1 30  1  0
  2 31  1  0
  2 32  1  0
  3 33  1  0
  3 34  1  0
  4 35  1  0
  5 36  1  1
  6 37  1  0
  6 38  1  0
  7 39  1  0
  9 40  1  0
  9 41  1  0
 10 42  1  0
 12 43  1  0
 12 44  1  0
 15 45  1  0
 15 46  1  0
 17 47  1  1
 18 48  1  1
 19 49  1  0
 19 50  1  0
 19 51  1  0
 20 52  1  0
 20 53  1  0
 22 54  1  0
 22 55  1  0
 23 56  1  6
 24 57  1  0
 24 58  1  0
 24 59  1  0
 27 60  1  0
 27 61  1  0
M  END
$$$$
