
     RDKit          2D

 74 80  0  0  0  0  0  0  0  0999 V2000
   -3.9943   -2.6718    0.0000 C   0  0  0  0  0  0  0  0  0  0  0  0
   -3.2901   -3.9962    0.0000 Sb  0  0  0  0  0  3  0  0  0  0  0  0
   -1.7910   -4.0485    0.0000 C   0  0  0  0  0  0  0  0  0  0  0  0
   -1.7387   -2.5494    0.0000 C   0  0  0  0  0  0  0  0  0  0  0  0
   -0.4666   -3.3443    0.0000 C   0  0  0  0  0  0  0  0  0  0  0  0
    0.8055   -4.1392    0.0000 C   0  0  0  0  0  0  0  0  0  0  0  0
    0.7531   -5.6383    0.0000 C   0  0  0  0  0  0  0  0  0  0  0  0
   -0.5713   -6.3425    0.0000 C   0  0  0  0  0  0  0  0  0  0  0  0
   -1.8434   -5.5476    0.0000 C   0  0  0  0  0  0  0  0  0  0  0  0
   -3.3106   -5.2357    0.0000 C   0  0  0  0  0  0  0  0  0  0  0  0
   -3.6225   -6.7030    0.0000 C   0  0  0  0  0  0  0  0  0  0  0  0
   -5.0897   -6.3911    0.0000 C   0  0  0  0  0  0  0  0  0  0  0  0
   -4.7778   -4.9239    0.0000 C   0  0  0  0  0  0  0  0  0  0  0  0
   -4.4659   -3.4567    0.0000 C   0  0  0  0  0  0  0  0  0  0  0  0
    0.8578   -2.6401    0.0000 C   0  0  0  0  0  0  0  0  0  0  0  0
    0.3943   -1.2135    0.0000 C   0  0  0  0  0  0  0  0  0  0  0  0
    1.8567   -1.5473    0.0000 C   0  0  0  0  0  0  0  0  0  0  0  0
    3.0294   -0.6121    0.0000 C   0  0  0  0  0  0  0  0  0  0  0  0
    3.0294    0.8879    0.0000 C   0  0  0  0  0  0  0  0  0  0  0  0
    1.8567    1.8232    0.0000 C   0  0  0  0  0  0  0  0  0  0  0  0
    3.0294    2.7584    0.0000 C   0  0  0  0  0  0  0  0  0  0  0  0
    3.8116    4.0383    0.0000 O   0  0  0  0  0  0  0  0  0  0  0  0
    2.3121    4.0757    0.0000 C   0  0  0  0  0  0  0  0  0  0  0  0
    2.0885    5.5590    0.0000 O   0  0  0  0  0  0  0  0  0  0  0  0
    0.3943    1.2135    0.0000 C   0  0  0  0  0  0  0  0  0  0  0  0
    1.2760    0.0000    0.0000 C   0  0  0  0  0  0  0  0  0  0  0  0
   -1.0323    0.7500    0.0000 C   0  0  0  0  0  0  0  0  0  0  0  0
   -2.5241    0.5932    0.0000 N   0  0  0  0  0  0  0  0  0  0  0  0
   -3.4057    1.8067    0.0000 C   0  0  0  0  0  0  0  0  0  0  0  0
   -4.2874    3.0203    0.0000 C   0  0  0  0  0  0  0  0  0  0  0  0
   -2.1922    2.6884    0.0000 O   0  0  0  0  0  0  0  0  0  0  0  0
   -1.0323   -0.7500    0.0000 C   0  0  0  0  0  0  0  0  0  0  0  0
   -4.5318   -1.2714    0.0000 H   0  0  0  0  0  0  0  0  0  0  0  0
   -5.3947   -3.2093    0.0000 H   0  0  0  0  0  0  0  0  0  0  0  0
   -2.7656   -1.8114    0.0000 H   0  0  0  0  0  0  0  0  0  0  0  0
   -3.9805   -4.3947    0.0000 H   0  0  0  0  0  0  0  0  0  0  0  0
   -3.1569   -2.0610    0.0000 H   0  0  0  0  0  0  0  0  0  0  0  0
   -1.5300   -1.0640    0.0000 H   0  0  0  0  0  0  0  0  0  0  0  0
    2.3046   -4.1915    0.0000 H   0  0  0  0  0  0  0  0  0  0  0  0
    1.2167   -7.0649    0.0000 H   0  0  0  0  0  0  0  0  0  0  0  0
    2.2385   -5.4295    0.0000 H   0  0  0  0  0  0  0  0  0  0  0  0
   -1.4316   -7.5712    0.0000 H   0  0  0  0  0  0  0  0  0  0  0  0
    0.3522   -7.5245    0.0000 H   0  0  0  0  0  0  0  0  0  0  0  0
   -2.2316   -6.9965    0.0000 H   0  0  0  0  0  0  0  0  0  0  0  0
   -3.2582   -6.7348    0.0000 H   0  0  0  0  0  0  0  0  0  0  0  0
   -3.9343   -8.1702    0.0000 H   0  0  0  0  0  0  0  0  0  0  0  0
   -2.2743   -7.3606    0.0000 H   0  0  0  0  0  0  0  0  0  0  0  0
   -6.5569   -6.0792    0.0000 H   0  0  0  0  0  0  0  0  0  0  0  0
   -5.4015   -7.8583    0.0000 H   0  0  0  0  0  0  0  0  0  0  0  0
   -6.2450   -4.6120    0.0000 H   0  0  0  0  0  0  0  0  0  0  0  0
   -4.7007   -1.9751    0.0000 H   0  0  0  0  0  0  0  0  0  0  0  0
   -5.9602   -3.3260    0.0000 H   0  0  0  0  0  0  0  0  0  0  0  0
   -2.9669   -3.4042    0.0000 H   0  0  0  0  0  0  0  0  0  0  0  0
    2.3576   -2.6140    0.0000 H   0  0  0  0  0  0  0  0  0  0  0  0
    1.5522   -3.0161    0.0000 H   0  0  0  0  0  0  0  0  0  0  0  0
    3.1347   -2.3326    0.0000 H   0  0  0  0  0  0  0  0  0  0  0  0
    4.3809   -1.2629    0.0000 H   0  0  0  0  0  0  0  0  0  0  0  0
    4.4501    1.3692    0.0000 H   0  0  0  0  0  0  0  0  0  0  0  0
    1.2059    3.1746    0.0000 H   0  0  0  0  0  0  0  0  0  0  0  0
    4.2667    1.9104    0.0000 H   0  0  0  0  0  0  0  0  0  0  0  0
    0.8425    3.7749    0.0000 H   0  0  0  0  0  0  0  0  0  0  0  0
    3.2612    6.4942    0.0000 H   0  0  0  0  0  0  0  0  0  0  0  0
    0.6805    2.6860    0.0000 H   0  0  0  0  0  0  0  0  0  0  0  0
    2.6004    0.7041    0.0000 H   0  0  0  0  0  0  0  0  0  0  0  0
    2.7315   -0.3627    0.0000 H   0  0  0  0  0  0  0  0  0  0  0  0
   -1.3442    2.2172    0.0000 H   0  0  0  0  0  0  0  0  0  0  0  0
   -3.2967   -0.6925    0.0000 H   0  0  0  0  0  0  0  0  0  0  0  0
   -4.6193    0.9251    0.0000 H   0  0  0  0  0  0  0  0  0  0  0  0
   -5.1691    4.2338    0.0000 H   0  0  0  0  0  0  0  0  0  0  0  0
   -3.1904    4.0433    0.0000 H   0  0  0  0  0  0  0  0  0  0  0  0
   -5.5010    2.1386    0.0000 H   0  0  0  0  0  0  0  0  0  0  0  0
   -2.1660    4.1882    0.0000 H   0  0  0  0  0  0  0  0  0  0  0  0
   -1.6899   -2.0982    0.0000 H   0  0  0  0  0  0  0  0  0  0  0  0
   -2.5321   -0.7762    0.0000 H   0  0  0  0  0  0  0  0  0  0  0  0
  1  2  1  0
  2  3  1  0
  3  4  1  0
  4  5  1  0
  5  6  1  0
  6  7  1  0
  7  8  1  0
  8  9  1  0
  9 10  1  0
 10 11  1  0
 11 12  1  0
 12 13  1  0
 13 14  1  0
  6 15  1  0
 15 16  1  0
 16 17  1  0
 17 18  1  0
 18 19  2  0
 19 20  1  0
 20 21  1  0
 21 22  1  0
 22 23  1  0
 23 24  1  0
 20 25  1  0
 25 26  1  0
 25 27  1  0
 27 28  1  0
 28 29  1  0
 29 30  1  0
 29 31  1  0
 27 32  1  0
  5  3  1  0
 13 10  1  0
 26 16  1  0
  9  3  1  0
 32 16  1  0
 15  5  1  0
 23 21  1  0
  1 33  1  0
  1 34  1  0
  1 35  1  0
  2 36  1  0
  4 37  1  0
  4 38  1  0
  6 39  1  0
  7 40  1  0
  7 41  1  0
  8 42  1  0
  8 43  1  0
  9 44  1  0
 10 45  1  0
 11 46  1  0
 11 47  1  0
 12 48  1  0
 12 49  1  0
 13 50  1  0
 14 51  1  0
 14 52  1  0
 14 53  1  0
 15 54  1  0
 17 55  1  0
 17 56  1  0
 18 57  1  0
 19 58  1  0
 20 59  1  0
 21 60  1  0
 23 61  1  0
 24 62  1  0
 25 63  1  0
 26 64  1  0
 26 65  1  0
 27 66  1  0
 28 67  1  0
 29 68  1  0
 30 69  1  0
 30 70  1  0
 30 71  1  0
 31 72  1  0
 32 73  1  0
 32 74  1  0
M  END
$$$$
