
     RDKit          2D

 37 42  0  0  0  0  0  0  0  0999 V2000
    4.2716    2.0377    0.0000 C   0  0  0  0  0  0  0  0  0  0  0  0
    3.3074    0.8886    0.0000 C   0  0  0  0  0  0  0  0  0  0  0  0
    1.8302    1.1491    0.0000 C   0  0  0  0  0  0  0  0  0  0  0  0
    1.3172    2.5586    0.0000 C   0  0  0  0  0  0  0  0  0  0  0  0
   -0.1600    2.8191    0.0000 N   0  0  0  0  0  0  0  0  0  0  0  0
    0.8660    0.0000    0.0000 C   0  0  0  0  0  0  0  0  0  0  0  0
   -0.4330    0.7500    0.0000 N   0  0  0  0  0  0  0  0  0  0  0  0
   -1.7321    0.0000    0.0000 C   0  0  0  0  0  0  0  0  0  0  0  0
   -3.0311   -0.7500    0.0000 C   0  0  0  0  0  0  0  0  0  0  0  0
   -4.5311   -0.7500    0.0000 C   0  0  0  0  0  0  0  0  0  0  0  0
   -4.5311   -2.2500    0.0000 C   0  0  0  0  0  0  0  0  0  0  0  0
   -5.9800   -2.6382    0.0000 O   0  0  0  0  0  0  0  0  0  0  0  0
   -3.7811   -3.5490    0.0000 C   0  0  0  0  0  0  0  0  0  0  0  0
   -4.9302   -4.5132    0.0000 O   0  0  0  0  0  0  0  0  0  0  0  0
   -3.0311   -2.2500    0.0000 C   0  0  0  0  0  0  0  0  0  0  0  0
   -1.7321   -3.0000    0.0000 C   0  0  0  0  0  0  0  0  0  0  0  0
   -0.4330   -3.7500    0.0000 C   0  0  0  0  0  0  0  0  0  0  0  0
   -0.4330   -2.2500    0.0000 C   0  0  0  0  0  0  0  0  0  0  0  0
   -0.4330   -0.7500    0.0000 C   0  0  0  0  0  0  0  0  0  0  0  0
    5.7488    1.7772    0.0000 H   0  0  0  0  0  0  0  0  0  0  0  0
    3.7586    3.4472    0.0000 H   0  0  0  0  0  0  0  0  0  0  0  0
    3.8204   -0.5209    0.0000 H   0  0  0  0  0  0  0  0  0  0  0  0
    2.2814    3.7077    0.0000 H   0  0  0  0  0  0  0  0  0  0  0  0
   -1.1242    1.6700    0.0000 H   0  0  0  0  0  0  0  0  0  0  0  0
   -0.6731    4.2286    0.0000 H   0  0  0  0  0  0  0  0  0  0  0  0
    1.8302   -1.1491    0.0000 H   0  0  0  0  0  0  0  0  0  0  0  0
   -2.4821    1.2990    0.0000 H   0  0  0  0  0  0  0  0  0  0  0  0
   -3.4193    0.6989    0.0000 H   0  0  0  0  0  0  0  0  0  0  0  0
   -6.0311   -0.7500    0.0000 H   0  0  0  0  0  0  0  0  0  0  0  0
   -4.5311    0.7500    0.0000 H   0  0  0  0  0  0  0  0  0  0  0  0
   -6.3682   -4.0871    0.0000 H   0  0  0  0  0  0  0  0  0  0  0  0
   -2.6320   -4.5132    0.0000 H   0  0  0  0  0  0  0  0  0  0  0  0
   -4.6697   -5.9904    0.0000 H   0  0  0  0  0  0  0  0  0  0  0  0
   -1.3187   -1.5581    0.0000 H   0  0  0  0  0  0  0  0  0  0  0  0
   -0.9460   -5.1595    0.0000 H   0  0  0  0  0  0  0  0  0  0  0  0
    1.0442   -4.0105    0.0000 H   0  0  0  0  0  0  0  0  0  0  0  0
   -1.2065   -2.4429    0.0000 H   0  0  0  0  0  0  0  0  0  0  0  0
  1  2  2  3
  2  3  1  0
  3  4  2  3
  4  5  1  0
  3  6  1  0
  6  7  1  0
  7  8  1  0
  8  9  1  0
  9 10  1  0
 10 11  1  0
 11 12  1  1
 11 13  1  0
 13 14  1  0
 13 15  1  0
 15 16  1  0
 16 17  1  0
 17 18  1  0
 18 19  1  0
 19  6  1  0
 19  7  1  1
 19  8  1  0
 15  9  1  0
 18 16  1  0
 15 11  1  1
  1 20  1  0
  1 21  1  0
  2 22  1  0
  4 23  1  0
  5 24  1  0
  5 25  1  0
  6 26  1  6
  8 27  1  1
  9 28  1  1
 10 29  1  0
 10 30  1  0
 12 31  1  0
 13 32  1  6
 14 33  1  0
 16 34  1  6
 17 35  1  0
 17 36  1  0
 18 37  1  6
M  END
$$$$
