
     RDKit          2D

 30 32  0  0  0  0  0  0  0  0999 V2000
   -3.8426    6.4896    0.0000 N   0  0  0  0  0  0  0  0  0  0  0  0
   -2.9074    5.3168    0.0000 N   0  0  0  0  0  0  0  0  0  0  0  0
   -3.4554    3.9205    0.0000 C   0  0  0  0  0  0  0  0  0  0  0  0
   -4.0034    2.5242    0.0000 N   0  0  0  0  0  0  0  0  0  0  0  0
   -3.0682    1.3515    0.0000 C   0  0  0  0  0  0  0  0  0  0  0  0
   -1.6058    1.6852    0.0000 C   0  0  0  0  0  0  0  0  0  0  0  0
   -0.4330    0.7500    0.0000 C   0  0  0  0  0  0  0  0  0  0  0  0
    0.8660    0.0000    0.0000 C   0  0  0  0  0  0  0  0  0  0  0  0
   -0.4330   -0.7500    0.0000 C   0  0  0  0  0  0  0  0  0  0  0  0
   -1.6058   -1.6852    0.0000 C   0  0  0  0  0  0  0  0  0  0  0  0
   -2.6260   -2.7848    0.0000 C   0  0  0  0  0  0  0  0  0  0  0  0
   -3.0682   -1.3515    0.0000 C   0  0  0  0  0  0  0  0  0  0  0  0
   -3.7190    0.0000    0.0000 C   0  0  0  0  0  0  0  0  0  0  0  0
   -3.2946    7.8859    0.0000 H   0  0  0  0  0  0  0  0  0  0  0  0
   -5.3258    6.2660    0.0000 H   0  0  0  0  0  0  0  0  0  0  0  0
   -1.4241    5.5404    0.0000 H   0  0  0  0  0  0  0  0  0  0  0  0
   -4.8517    4.4685    0.0000 H   0  0  0  0  0  0  0  0  0  0  0  0
   -2.0027    3.5468    0.0000 H   0  0  0  0  0  0  0  0  0  0  0  0
   -5.4866    2.3006    0.0000 H   0  0  0  0  0  0  0  0  0  0  0  0
   -1.0962    3.0960    0.0000 H   0  0  0  0  0  0  0  0  0  0  0  0
    0.4120    1.9894    0.0000 H   0  0  0  0  0  0  0  0  0  0  0  0
    1.8302    1.1491    0.0000 H   0  0  0  0  0  0  0  0  0  0  0  0
    1.8302   -1.1491    0.0000 H   0  0  0  0  0  0  0  0  0  0  0  0
    0.4120   -1.9894    0.0000 H   0  0  0  0  0  0  0  0  0  0  0  0
   -0.5855   -2.7848    0.0000 H   0  0  0  0  0  0  0  0  0  0  0  0
   -1.7203   -3.9805    0.0000 H   0  0  0  0  0  0  0  0  0  0  0  0
   -3.9608   -3.4691    0.0000 H   0  0  0  0  0  0  0  0  0  0  0  0
   -4.4645   -1.8995    0.0000 H   0  0  0  0  0  0  0  0  0  0  0  0
   -4.8917    0.9352    0.0000 H   0  0  0  0  0  0  0  0  0  0  0  0
   -4.8917   -0.9352    0.0000 H   0  0  0  0  0  0  0  0  0  0  0  0
  1  2  1  0
  2  3  1  0
  3  4  1  0
  4  5  1  0
  5  6  2  0
  6  7  1  0
  7  8  1  0
  8  9  1  0
  9 10  1  0
 10 11  1  0
 11 12  1  0
 12 13  1  0
 13  5  1  0
  9  7  1  0
 12 10  1  0
  1 14  1  0
  1 15  1  0
  2 16  1  0
  3 17  1  0
  3 18  1  0
  4 19  1  0
  6 20  1  0
  7 21  1  0
  8 22  1  0
  8 23  1  0
  9 24  1  0
 10 25  1  0
 11 26  1  0
 11 27  1  0
 12 28  1  0
 13 29  1  0
 13 30  1  0
M  END
$$$$
