
     RDKit          2D

 76 79  0  0  0  0  0  0  0  0999 V2000
   -4.4004   10.6031    0.0000 N   0  0  0  0  0  0  0  0  0  0  0  0
   -4.9134    9.1935    0.0000 C   0  0  0  0  0  0  0  0  0  0  0  0
   -3.9493    8.0445    0.0000 N   0  0  0  0  0  0  0  0  0  0  0  0
   -4.4623    6.6349    0.0000 C   0  0  0  0  0  0  0  0  0  0  0  0
   -4.9753    5.2254    0.0000 C   0  0  0  0  0  0  0  0  0  0  0  0
   -5.4883    3.8158    0.0000 C   0  0  0  0  0  0  0  0  0  0  0  0
   -6.0014    2.4063    0.0000 C   0  0  0  0  0  0  0  0  0  0  0  0
   -5.0372    1.2572    0.0000 O   0  0  0  0  0  0  0  0  0  0  0  0
   -3.5658    4.7124    0.0000 C   0  0  0  0  0  0  0  0  0  0  0  0
   -2.1562    4.1993    0.0000 C   0  0  0  0  0  0  0  0  0  0  0  0
   -1.8958    2.7221    0.0000 C   0  0  0  0  0  0  0  0  0  0  0  0
   -0.4862    2.2091    0.0000 C   0  0  0  0  0  0  0  0  0  0  0  0
    0.9233    1.6960    0.0000 C   0  0  0  0  0  0  0  0  0  0  0  0
    2.3329    1.1830    0.0000 C   0  0  0  0  0  0  0  0  0  0  0  0
    2.8459    2.5926    0.0000 C   0  0  0  0  0  0  0  0  0  0  0  0
    4.2554    2.0795    0.0000 C   0  0  0  0  0  0  0  0  0  0  0  0
    4.7685    3.4891    0.0000 C   0  0  0  0  0  0  0  0  0  0  0  0
    5.2815    4.8986    0.0000 C   0  0  0  0  0  0  0  0  0  0  0  0
    5.7945    6.3081    0.0000 C   0  0  0  0  0  0  0  0  0  0  0  0
    6.3075    7.7177    0.0000 C   0  0  0  0  0  0  0  0  0  0  0  0
    6.8206    9.1272    0.0000 C   0  0  0  0  0  0  0  0  0  0  0  0
    7.3336   10.5368    0.0000 C   0  0  0  0  0  0  0  0  0  0  0  0
    8.2978   11.6858    0.0000 C   0  0  0  0  0  0  0  0  0  0  0  0
    8.8108   10.2763    0.0000 C   0  0  0  0  0  0  0  0  0  0  0  0
    3.7424    0.6700    0.0000 C   0  0  0  0  0  0  0  0  0  0  0  0
   -6.3906    8.9331    0.0000 N   0  0  0  0  0  0  0  0  0  0  0  0
   -7.3548   10.0821    0.0000 C   0  0  0  0  0  0  0  0  0  0  0  0
   -6.3906   11.2312    0.0000 C   0  0  0  0  0  0  0  0  0  0  0  0
   -7.8679   11.4917    0.0000 C   0  0  0  0  0  0  0  0  0  0  0  0
   -8.3809   12.9012    0.0000 C   0  0  0  0  0  0  0  0  0  0  0  0
   -9.3451   11.7521    0.0000 C   0  0  0  0  0  0  0  0  0  0  0  0
   -2.9232   10.8635    0.0000 H   0  0  0  0  0  0  0  0  0  0  0  0
   -2.4720    8.3049    0.0000 H   0  0  0  0  0  0  0  0  0  0  0  0
   -3.5992    6.4357    0.0000 H   0  0  0  0  0  0  0  0  0  0  0  0
   -5.8718    7.1480    0.0000 H   0  0  0  0  0  0  0  0  0  0  0  0
   -6.3849    5.7384    0.0000 H   0  0  0  0  0  0  0  0  0  0  0  0
   -6.8979    4.3289    0.0000 H   0  0  0  0  0  0  0  0  0  0  0  0
   -4.6992    3.4137    0.0000 H   0  0  0  0  0  0  0  0  0  0  0  0
   -7.4786    2.1458    0.0000 H   0  0  0  0  0  0  0  0  0  0  0  0
   -3.1636    5.5015    0.0000 H   0  0  0  0  0  0  0  0  0  0  0  0
   -3.7650    3.8493    0.0000 H   0  0  0  0  0  0  0  0  0  0  0  0
   -1.0072    5.1635    0.0000 H   0  0  0  0  0  0  0  0  0  0  0  0
   -3.0448    1.7579    0.0000 H   0  0  0  0  0  0  0  0  0  0  0  0
   -0.8884    1.4199    0.0000 H   0  0  0  0  0  0  0  0  0  0  0  0
   -0.6854    1.3460    0.0000 H   0  0  0  0  0  0  0  0  0  0  0  0
    0.4103    0.2865    0.0000 H   0  0  0  0  0  0  0  0  0  0  0  0
    1.2607    3.1576    0.0000 H   0  0  0  0  0  0  0  0  0  0  0  0
    1.8198   -0.2265    0.0000 H   0  0  0  0  0  0  0  0  0  0  0  0
    3.1833    4.0541    0.0000 H   0  0  0  0  0  0  0  0  0  0  0  0
    1.5094    3.2736    0.0000 H   0  0  0  0  0  0  0  0  0  0  0  0
    5.6650    1.5665    0.0000 H   0  0  0  0  0  0  0  0  0  0  0  0
    6.1780    2.9760    0.0000 H   0  0  0  0  0  0  0  0  0  0  0  0
    3.4320    4.1701    0.0000 H   0  0  0  0  0  0  0  0  0  0  0  0
    6.6910    4.3856    0.0000 H   0  0  0  0  0  0  0  0  0  0  0  0
    3.8719    5.4116    0.0000 H   0  0  0  0  0  0  0  0  0  0  0  0
    7.2041    5.7951    0.0000 H   0  0  0  0  0  0  0  0  0  0  0  0
    4.3850    6.8212    0.0000 H   0  0  0  0  0  0  0  0  0  0  0  0
    7.7171    7.2047    0.0000 H   0  0  0  0  0  0  0  0  0  0  0  0
    4.8980    8.2307    0.0000 H   0  0  0  0  0  0  0  0  0  0  0  0
    5.4110    9.6403    0.0000 H   0  0  0  0  0  0  0  0  0  0  0  0
    8.1571    8.4462    0.0000 H   0  0  0  0  0  0  0  0  0  0  0  0
    6.0346   11.2868    0.0000 H   0  0  0  0  0  0  0  0  0  0  0  0
    7.3336   12.8349    0.0000 H   0  0  0  0  0  0  0  0  0  0  0  0
    9.5968   12.4358    0.0000 H   0  0  0  0  0  0  0  0  0  0  0  0
   10.2880   10.5368    0.0000 H   0  0  0  0  0  0  0  0  0  0  0  0
    8.9937    8.7875    0.0000 H   0  0  0  0  0  0  0  0  0  0  0  0
    3.2294   -0.7396    0.0000 H   0  0  0  0  0  0  0  0  0  0  0  0
    5.1519    0.1570    0.0000 H   0  0  0  0  0  0  0  0  0  0  0  0
   -6.9037    7.5235    0.0000 H   0  0  0  0  0  0  0  0  0  0  0  0
   -8.6539    9.3321    0.0000 H   0  0  0  0  0  0  0  0  0  0  0  0
   -4.9487   10.8178    0.0000 H   0  0  0  0  0  0  0  0  0  0  0  0
   -5.8776   12.6407    0.0000 H   0  0  0  0  0  0  0  0  0  0  0  0
   -7.0819   13.6512    0.0000 H   0  0  0  0  0  0  0  0  0  0  0  0
   -9.3451   14.0503    0.0000 H   0  0  0  0  0  0  0  0  0  0  0  0
  -10.6441   12.5021    0.0000 H   0  0  0  0  0  0  0  0  0  0  0  0
   -9.8581   10.3426    0.0000 H   0  0  0  0  0  0  0  0  0  0  0  0
  1  2  2  3
  2  3  1  0
  3  4  1  0
  4  5  1  0
  5  6  1  0
  6  7  1  0
  7  8  2  0
  5  9  1  0
  9 10  1  0
 10 11  2  3
 11 12  1  0
 12 13  1  0
 13 14  1  0
 14 15  1  0
 15 16  1  0
 16 17  1  0
 17 18  1  0
 18 19  1  0
 19 20  1  0
 20 21  1  0
 21 22  1  0
 22 23  1  0
 23 24  1  0
 16 25  1  0
  2 26  1  0
 26 27  1  0
 27 28  1  0
 28 29  1  0
 29 30  1  0
 30 31  1  0
 25 14  1  0
 29 27  1  0
 24 22  1  0
 31 29  1  0
  1 32  1  0
  3 33  1  0
  4 34  1  0
  4 35  1  0
  5 36  1  6
  6 37  1  0
  6 38  1  0
  7 39  1  0
  9 40  1  0
  9 41  1  0
 10 42  1  0
 11 43  1  0
 12 44  1  0
 12 45  1  0
 13 46  1  0
 13 47  1  0
 14 48  1  6
 15 49  1  0
 15 50  1  0
 16 51  1  1
 17 52  1  0
 17 53  1  0
 18 54  1  0
 18 55  1  0
 19 56  1  0
 19 57  1  0
 20 58  1  0
 20 59  1  0
 21 60  1  0
 21 61  1  0
 22 62  1  0
 23 63  1  0
 23 64  1  0
 24 65  1  0
 24 66  1  0
 25 67  1  0
 25 68  1  0
 26 69  1  0
 27 70  1  1
 28 71  1  0
 28 72  1  0
 30 73  1  0
 30 74  1  0
 31 75  1  0
 31 76  1  0
M  END
$$$$
