
     RDKit          2D

 57 62  0  0  0  0  0  0  0  0999 V2000
   -4.9888    2.5824    0.0000 C   0  0  0  0  0  0  0  0  0  0  0  0
   -3.5980    3.1443    0.0000 C   0  0  0  0  0  0  0  0  0  0  0  0
   -2.4833    4.1480    0.0000 C   0  0  0  0  0  0  0  0  0  0  0  0
   -1.0567    3.6844    0.0000 C   0  0  0  0  0  0  0  0  0  0  0  0
   -0.7449    2.2172    0.0000 C   0  0  0  0  0  0  0  0  0  0  0  0
   -0.4330    0.7500    0.0000 C   0  0  0  0  0  0  0  0  0  0  0  0
    0.8660    0.0000    0.0000 C   0  0  0  0  0  0  0  0  0  0  0  0
    2.3578   -0.1568    0.0000 C   0  0  0  0  0  0  0  0  0  0  0  0
    3.4725   -1.1605    0.0000 C   0  0  0  0  0  0  0  0  0  0  0  0
    3.7844   -2.6277    0.0000 C   0  0  0  0  0  0  0  0  0  0  0  0
    3.1743   -3.9980    0.0000 C   0  0  0  0  0  0  0  0  0  0  0  0
    1.8752   -4.7480    0.0000 S   0  0  0  0  0  0  0  0  0  0  0  0
    0.3835   -4.5912    0.0000 C   0  0  0  0  0  0  0  0  0  0  0  0
   -0.8145   -5.4940    0.0000 I   0  0  0  0  0  0  0  0  0  0  0  0
   -0.7313   -3.5875    0.0000 C   0  0  0  0  0  0  0  0  0  0  0  0
   -1.0431   -2.1203    0.0000 C   0  0  0  0  0  0  0  0  0  0  0  0
    0.2423   -2.9344    0.0000 C   0  0  0  0  0  0  0  0  0  0  0  0
    1.6689   -2.4709    0.0000 C   0  0  0  0  0  0  0  0  0  0  0  0
    1.9807   -1.0037    0.0000 C   0  0  0  0  0  0  0  0  0  0  0  0
   -0.4330   -0.7500    0.0000 C   0  0  0  0  0  0  0  0  0  0  0  0
   -1.8596   -1.2135    0.0000 C   0  0  0  0  0  0  0  0  0  0  0  0
   -2.7413    0.0000    0.0000 C   0  0  0  0  0  0  0  0  0  0  0  0
   -1.8596    1.2135    0.0000 C   0  0  0  0  0  0  0  0  0  0  0  0
   -3.2862    1.6771    0.0000 C   0  0  0  0  0  0  0  0  0  0  0  0
   -6.3796    2.0205    0.0000 H   0  0  0  0  0  0  0  0  0  0  0  0
   -5.5507    3.9731    0.0000 H   0  0  0  0  0  0  0  0  0  0  0  0
   -4.7801    1.0969    0.0000 H   0  0  0  0  0  0  0  0  0  0  0  0
   -4.3929    4.4163    0.0000 H   0  0  0  0  0  0  0  0  0  0  0  0
   -3.6653    5.0715    0.0000 H   0  0  0  0  0  0  0  0  0  0  0  0
   -1.7791    5.4724    0.0000 H   0  0  0  0  0  0  0  0  0  0  0  0
   -0.8480    5.1698    0.0000 H   0  0  0  0  0  0  0  0  0  0  0  0
    0.4423    3.7368    0.0000 H   0  0  0  0  0  0  0  0  0  0  0  0
   -1.4613    1.8677    0.0000 H   0  0  0  0  0  0  0  0  0  0  0  0
    3.5557    0.7460    0.0000 H   0  0  0  0  0  0  0  0  0  0  0  0
    2.0459    1.3104    0.0000 H   0  0  0  0  0  0  0  0  0  0  0  0
    4.9723   -1.1343    0.0000 H   0  0  0  0  0  0  0  0  0  0  0  0
    4.2451    0.1252    0.0000 H   0  0  0  0  0  0  0  0  0  0  0  0
    5.0131   -3.4880    0.0000 H   0  0  0  0  0  0  0  0  0  0  0  0
    5.1652   -2.0417    0.0000 H   0  0  0  0  0  0  0  0  0  0  0  0
    3.4862   -5.4652    0.0000 H   0  0  0  0  0  0  0  0  0  0  0  0
    4.6358   -4.3355    0.0000 H   0  0  0  0  0  0  0  0  0  0  0  0
    0.6953   -6.0585    0.0000 H   0  0  0  0  0  0  0  0  0  0  0  0
   -2.2230   -3.4307    0.0000 H   0  0  0  0  0  0  0  0  0  0  0  0
   -1.5038   -4.8733    0.0000 H   0  0  0  0  0  0  0  0  0  0  0  0
   -2.5429   -2.1465    0.0000 H   0  0  0  0  0  0  0  0  0  0  0  0
    1.2460   -4.0491    0.0000 H   0  0  0  0  0  0  0  0  0  0  0  0
   -0.6811   -4.1165    0.0000 H   0  0  0  0  0  0  0  0  0  0  0  0
    3.1107   -2.8845    0.0000 H   0  0  0  0  0  0  0  0  0  0  0  0
    2.2309   -3.8617    0.0000 H   0  0  0  0  0  0  0  0  0  0  0  0
    3.0598    0.0382    0.0000 H   0  0  0  0  0  0  0  0  0  0  0  0
    3.1942   -1.8854    0.0000 H   0  0  0  0  0  0  0  0  0  0  0  0
   -1.5992   -2.6908    0.0000 H   0  0  0  0  0  0  0  0  0  0  0  0
   -3.2404   -1.7996    0.0000 H   0  0  0  0  0  0  0  0  0  0  0  0
   -3.8560   -1.0037    0.0000 H   0  0  0  0  0  0  0  0  0  0  0  0
   -4.0657    0.7041    0.0000 H   0  0  0  0  0  0  0  0  0  0  0  0
   -4.0135    0.3652    0.0000 H   0  0  0  0  0  0  0  0  0  0  0  0
   -4.7677    1.4424    0.0000 H   0  0  0  0  0  0  0  0  0  0  0  0
  1  2  1  0
  2  3  1  0
  3  4  1  0
  4  5  1  0
  5  6  1  0
  6  7  1  1
  7  8  1  1
  8  9  1  0
  9 10  1  0
 10 11  1  0
 11 12  1  0
 12 13  1  0
 13 14  1  0
 13 15  1  0
 15 16  1  0
 16 17  1  0
 17 18  1  0
 18 19  1  0
 16 20  1  0
 20 21  1  1
 21 22  1  0
 23 22  1  1
 23 24  1  0
 24  2  1  0
 23  5  1  0
 20  6  1  0
 23  6  1  0
 19  7  1  0
 20  7  1  0
  1 25  1  0
  1 26  1  0
  1 27  1  0
  2 28  1  1
  3 29  1  0
  3 30  1  0
  4 31  1  0
  4 32  1  0
  5 33  1  1
  8 34  1  0
  8 35  1  0
  9 36  1  0
  9 37  1  0
 10 38  1  0
 10 39  1  0
 11 40  1  0
 11 41  1  0
 13 42  1  6
 15 43  1  0
 15 44  1  0
 16 45  1  6
 17 46  1  0
 17 47  1  0
 18 48  1  0
 18 49  1  0
 19 50  1  0
 19 51  1  0
 21 52  1  0
 21 53  1  0
 22 54  1  0
 22 55  1  0
 24 56  1  0
 24 57  1  0
M  END
$$$$
