
     RDKit          2D

 44 47  0  0  0  0  0  0  0  0999 V2000
    2.9013    0.9352    0.0000 C   0  0  0  0  0  0  0  0  0  0  0  0
    1.7286    0.0000    0.0000 C   0  0  0  0  0  0  0  0  0  0  0  0
    1.0777    1.3515    0.0000 C   0  0  0  0  0  0  0  0  0  0  0  0
   -0.3846    1.6852    0.0000 C   0  0  0  0  0  0  0  0  0  0  0  0
   -1.5574    0.7500    0.0000 N   0  0  0  0  0  0  0  0  0  0  0  0
   -1.5574   -0.7500    0.0000 C   0  0  0  0  0  0  0  0  0  0  0  0
   -2.2082   -2.1015    0.0000 C   0  0  0  0  0  0  0  0  0  0  0  0
   -2.8590   -3.4529    0.0000 C   0  0  0  0  0  0  0  0  0  0  0  0
   -4.3548   -3.5650    0.0000 C   0  0  0  0  0  0  0  0  0  0  0  0
   -5.0057   -4.9165    0.0000 C   0  0  0  0  0  0  0  0  0  0  0  0
   -6.4496   -4.5102    0.0000 C   0  0  0  0  0  0  0  0  0  0  0  0
   -7.9465   -4.4130    0.0000 C   0  0  0  0  0  0  0  0  0  0  0  0
   -8.5014   -5.8066    0.0000 C   0  0  0  0  0  0  0  0  0  0  0  0
   -8.7545   -7.2851    0.0000 O   0  0  0  0  0  0  0  0  0  0  0  0
   -7.3476   -6.7650    0.0000 C   0  0  0  0  0  0  0  0  0  0  0  0
   -6.6833   -8.1099    0.0000 O   0  0  0  0  0  0  0  0  0  0  0  0
   -6.0795   -5.9638    0.0000 C   0  0  0  0  0  0  0  0  0  0  0  0
   -0.3846   -1.6852    0.0000 C   0  0  0  0  0  0  0  0  0  0  0  0
    1.0777   -1.3515    0.0000 C   0  0  0  0  0  0  0  0  0  0  0  0
    4.0741    1.8705    0.0000 H   0  0  0  0  0  0  0  0  0  0  0  0
    3.8366   -0.2375    0.0000 H   0  0  0  0  0  0  0  0  0  0  0  0
    2.4840    1.6144    0.0000 H   0  0  0  0  0  0  0  0  0  0  0  0
    3.0066   -0.7853    0.0000 H   0  0  0  0  0  0  0  0  0  0  0  0
    1.2606    2.8403    0.0000 H   0  0  0  0  0  0  0  0  0  0  0  0
    1.8275    1.6223    0.0000 H   0  0  0  0  0  0  0  0  0  0  0  0
   -1.5574    2.6205    0.0000 H   0  0  0  0  0  0  0  0  0  0  0  0
    0.0966    3.1059    0.0000 H   0  0  0  0  0  0  0  0  0  0  0  0
   -2.9088    1.4008    0.0000 H   0  0  0  0  0  0  0  0  0  0  0  0
   -3.0198   -0.4162    0.0000 H   0  0  0  0  0  0  0  0  0  0  0  0
   -0.9462   -2.9122    0.0000 H   0  0  0  0  0  0  0  0  0  0  0  0
   -3.5597   -1.4506    0.0000 H   0  0  0  0  0  0  0  0  0  0  0  0
   -2.0141   -4.6923    0.0000 H   0  0  0  0  0  0  0  0  0  0  0  0
   -5.1998   -2.3256    0.0000 H   0  0  0  0  0  0  0  0  0  0  0  0
   -3.7878   -5.7921    0.0000 H   0  0  0  0  0  0  0  0  0  0  0  0
   -6.1965   -3.0317    0.0000 H   0  0  0  0  0  0  0  0  0  0  0  0
   -7.6934   -2.9345    0.0000 H   0  0  0  0  0  0  0  0  0  0  0  0
   -9.3904   -4.0068    0.0000 H   0  0  0  0  0  0  0  0  0  0  0  0
   -9.9454   -5.4003    0.0000 H   0  0  0  0  0  0  0  0  0  0  0  0
   -7.5159   -9.3576    0.0000 H   0  0  0  0  0  0  0  0  0  0  0  0
   -5.1501   -7.1412    0.0000 H   0  0  0  0  0  0  0  0  0  0  0  0
    0.0966   -3.1059    0.0000 H   0  0  0  0  0  0  0  0  0  0  0  0
   -1.4346   -2.7564    0.0000 H   0  0  0  0  0  0  0  0  0  0  0  0
    2.4885   -1.8610    0.0000 H   0  0  0  0  0  0  0  0  0  0  0  0
    1.2606   -2.8403    0.0000 H   0  0  0  0  0  0  0  0  0  0  0  0
  1  2  1  0
  2  3  1  0
  3  4  1  0
  4  5  1  0
  5  6  1  0
  6  7  1  0
  7  8  1  0
  8  9  2  3
  9 10  1  0
 10 11  1  0
 11 12  1  0
 12 13  1  0
 13 14  1  0
 14 15  1  0
 15 16  1  6
 15 17  1  0
  6 18  1  0
 18 19  1  0
 19  2  1  0
 17 10  1  0
 17 11  1  0
 15 13  1  0
  1 20  1  0
  1 21  1  0
  1 22  1  0
  2 23  1  1
  3 24  1  0
  3 25  1  0
  4 26  1  0
  4 27  1  0
  5 28  1  0
  6 29  1  1
  7 30  1  0
  7 31  1  0
  8 32  1  0
  9 33  1  0
 10 34  1  6
 11 35  1  6
 12 36  1  0
 12 37  1  0
 13 38  1  6
 16 39  1  0
 17 40  1  6
 18 41  1  0
 18 42  1  0
 19 43  1  0
 19 44  1  0
M  END
$$$$
