
     RDKit          2D

108115  0  0  0  0  0  0  0  0999 V2000
    2.2814    3.7077    0.0000 C   0  0  0  0  0  0  0  0  0  0  0  0
    2.7944    2.2981    0.0000 C   0  0  0  0  0  0  0  0  0  0  0  0
    1.8302    1.1491    0.0000 C   0  0  0  0  0  0  0  0  0  0  0  0
    0.8660    0.0000    0.0000 C   0  0  0  0  0  0  0  0  0  0  0  0
   -0.4330    0.7500    0.0000 N   0  0  0  0  0  0  0  0  0  0  0  0
   -1.7321    0.0000    0.0000 C   0  0  0  0  0  0  0  0  0  0  0  0
   -3.2304   -0.0714    0.0000 C   0  0  0  0  0  0  0  0  0  0  0  0
   -2.8078    1.3679    0.0000 C   0  0  0  0  0  0  0  0  0  0  0  0
   -2.3852    2.8071    0.0000 C   0  0  0  0  0  0  0  0  0  0  0  0
   -4.4522    0.7987    0.0000 N   0  0  0  0  0  0  0  0  0  0  0  0
   -4.3096    2.2919    0.0000 C   0  0  0  0  0  0  0  0  0  0  0  0
   -4.4522   -0.9415    0.0000 C   0  0  0  0  0  0  0  0  0  0  0  0
   -5.0097   -2.3340    0.0000 C   0  0  0  0  0  0  0  0  0  0  0  0
   -4.7258   -3.8069    0.0000 C   0  0  0  0  0  0  0  0  0  0  0  0
   -6.1433   -3.3163    0.0000 N   0  0  0  0  0  0  0  0  0  0  0  0
   -7.6162   -3.6002    0.0000 C   0  0  0  0  0  0  0  0  0  0  0  0
   -3.6907   -4.8925    0.0000 C   0  0  0  0  0  0  0  0  0  0  0  0
   -2.2330   -5.2461    0.0000 C   0  0  0  0  0  0  0  0  0  0  0  0
   -0.8155   -4.7555    0.0000 C   0  0  0  0  0  0  0  0  0  0  0  0
    0.1117   -3.5765    0.0000 C   0  0  0  0  0  0  0  0  0  0  0  0
    0.2543   -2.0833    0.0000 N   0  0  0  0  0  0  0  0  0  0  0  0
    1.3101   -3.1488    0.0000 C   0  0  0  0  0  0  0  0  0  0  0  0
    2.0281   -1.8318    0.0000 N   0  0  0  0  0  0  0  0  0  0  0  0
    3.5276   -1.7951    0.0000 C   0  0  0  0  0  0  0  0  0  0  0  0
    5.0272   -1.7584    0.0000 C   0  0  0  0  0  0  0  0  0  0  0  0
    6.5267   -1.7217    0.0000 C   0  0  0  0  0  0  0  0  0  0  0  0
    8.0263   -1.6849    0.0000 C   0  0  0  0  0  0  0  0  0  0  0  0
    1.2465   -0.5515    0.0000 C   0  0  0  0  0  0  0  0  0  0  0  0
    2.6431   -0.0041    0.0000 C   0  0  0  0  0  0  0  0  0  0  0  0
    2.8673    1.4790    0.0000 C   0  0  0  0  0  0  0  0  0  0  0  0
    1.6950    2.4148    0.0000 C   0  0  0  0  0  0  0  0  0  0  0  0
    0.2984    1.8674    0.0000 C   0  0  0  0  0  0  0  0  0  0  0  0
    0.0742    0.3843    0.0000 C   0  0  0  0  0  0  0  0  0  0  0  0
   -0.6438   -0.9327    0.0000 C   0  0  0  0  0  0  0  0  0  0  0  0
   -2.1434   -0.9694    0.0000 C   0  0  0  0  0  0  0  0  0  0  0  0
    1.4339   -4.6437    0.0000 C   0  0  0  0  0  0  0  0  0  0  0  0
    0.5679   -5.8684    0.0000 N   0  0  0  0  0  0  0  0  0  0  0  0
   -0.8828   -6.2500    0.0000 C   0  0  0  0  0  0  0  0  0  0  0  0
   -0.1012   -7.5303    0.0000 C   0  0  0  0  0  0  0  0  0  0  0  0
    0.6804   -8.8105    0.0000 C   0  0  0  0  0  0  0  0  0  0  0  0
   -2.7089   -6.2739    0.0000 C   0  0  0  0  0  0  0  0  0  0  0  0
   -1.2106   -6.2026    0.0000 C   0  0  0  0  0  0  0  0  0  0  0  0
   -4.2023   -6.4151    0.0000 C   0  0  0  0  0  0  0  0  0  0  0  0
   -0.4330   -0.7500    0.0000 C   0  0  0  0  0  0  0  0  0  0  0  0
    3.2455    4.8567    0.0000 H   0  0  0  0  0  0  0  0  0  0  0  0
    0.8469    4.1463    0.0000 H   0  0  0  0  0  0  0  0  0  0  0  0
    4.2716    2.0377    0.0000 H   0  0  0  0  0  0  0  0  0  0  0  0
    0.9486    2.3626    0.0000 H   0  0  0  0  0  0  0  0  0  0  0  0
    3.2485    0.6608    0.0000 H   0  0  0  0  0  0  0  0  0  0  0  0
    2.0796   -0.8816    0.0000 H   0  0  0  0  0  0  0  0  0  0  0  0
   -1.7938    1.4987    0.0000 H   0  0  0  0  0  0  0  0  0  0  0  0
   -4.1020    2.1262    0.0000 H   0  0  0  0  0  0  0  0  0  0  0  0
   -1.3685    0.9453    0.0000 H   0  0  0  0  0  0  0  0  0  0  0  0
   -1.9626    4.2463    0.0000 H   0  0  0  0  0  0  0  0  0  0  0  0
   -3.7621    3.4020    0.0000 H   0  0  0  0  0  0  0  0  0  0  0  0
   -1.0082    2.2122    0.0000 H   0  0  0  0  0  0  0  0  0  0  0  0
   -5.8167    0.1756    0.0000 H   0  0  0  0  0  0  0  0  0  0  0  0
   -4.3501    3.7914    0.0000 H   0  0  0  0  0  0  0  0  0  0  0  0
   -5.8028    2.4345    0.0000 H   0  0  0  0  0  0  0  0  0  0  0  0
   -2.9243    2.8672    0.0000 H   0  0  0  0  0  0  0  0  0  0  0  0
   -5.2105    0.3528    0.0000 H   0  0  0  0  0  0  0  0  0  0  0  0
   -5.9306   -0.6880    0.0000 H   0  0  0  0  0  0  0  0  0  0  0  0
   -6.3285   -1.6194    0.0000 H   0  0  0  0  0  0  0  0  0  0  0  0
   -5.5368   -5.0688    0.0000 H   0  0  0  0  0  0  0  0  0  0  0  0
   -9.0891   -3.8841    0.0000 H   0  0  0  0  0  0  0  0  0  0  0  0
   -7.9001   -2.1273    0.0000 H   0  0  0  0  0  0  0  0  0  0  0  0
   -7.3323   -5.0731    0.0000 H   0  0  0  0  0  0  0  0  0  0  0  0
   -2.7145   -6.6668    0.0000 H   0  0  0  0  0  0  0  0  0  0  0  0
   -3.7330   -5.2557    0.0000 H   0  0  0  0  0  0  0  0  0  0  0  0
    0.4347   -5.5843    0.0000 H   0  0  0  0  0  0  0  0  0  0  0  0
    0.5933   -4.9971    0.0000 H   0  0  0  0  0  0  0  0  0  0  0  0
    1.6117   -3.5861    0.0000 H   0  0  0  0  0  0  0  0  0  0  0  0
    2.7777   -3.4589    0.0000 H   0  0  0  0  0  0  0  0  0  0  0  0
    3.7468   -3.2790    0.0000 H   0  0  0  0  0  0  0  0  0  0  0  0
    3.8548   -0.3312    0.0000 H   0  0  0  0  0  0  0  0  0  0  0  0
    5.0639   -3.2579    0.0000 H   0  0  0  0  0  0  0  0  0  0  0  0
    5.1735   -0.2655    0.0000 H   0  0  0  0  0  0  0  0  0  0  0  0
    6.5634   -3.2212    0.0000 H   0  0  0  0  0  0  0  0  0  0  0  0
    6.4900   -0.2221    0.0000 H   0  0  0  0  0  0  0  0  0  0  0  0
    9.5258   -1.6482    0.0000 H   0  0  0  0  0  0  0  0  0  0  0  0
    7.9896   -0.1854    0.0000 H   0  0  0  0  0  0  0  0  0  0  0  0
    8.0630   -3.1845    0.0000 H   0  0  0  0  0  0  0  0  0  0  0  0
    0.0088   -1.3990    0.0000 H   0  0  0  0  0  0  0  0  0  0  0  0
    4.0892    0.3944    0.0000 H   0  0  0  0  0  0  0  0  0  0  0  0
    3.2866   -1.3591    0.0000 H   0  0  0  0  0  0  0  0  0  0  0  0
    3.5853    2.7960    0.0000 H   0  0  0  0  0  0  0  0  0  0  0  0
    4.2890    1.0006    0.0000 H   0  0  0  0  0  0  0  0  0  0  0  0
    0.7632    3.5903    0.0000 H   0  0  0  0  0  0  0  0  0  0  0  0
    2.5466    3.6496    0.0000 H   0  0  0  0  0  0  0  0  0  0  0  0
   -1.2011    1.8307    0.0000 H   0  0  0  0  0  0  0  0  0  0  0  0
    0.0019    3.3378    0.0000 H   0  0  0  0  0  0  0  0  0  0  0  0
   -1.3952    0.6858    0.0000 H   0  0  0  0  0  0  0  0  0  0  0  0
   -0.3731   -2.4081    0.0000 H   0  0  0  0  0  0  0  0  0  0  0  0
   -2.8613   -2.2864    0.0000 H   0  0  0  0  0  0  0  0  0  0  0  0
   -3.2115    0.0837    0.0000 H   0  0  0  0  0  0  0  0  0  0  0  0
    2.8868   -4.2706    0.0000 H   0  0  0  0  0  0  0  0  0  0  0  0
    2.3588   -5.8246    0.0000 H   0  0  0  0  0  0  0  0  0  0  0  0
    1.5665   -6.9877    0.0000 H   0  0  0  0  0  0  0  0  0  0  0  0
   -1.7416   -7.4798    0.0000 H   0  0  0  0  0  0  0  0  0  0  0  0
   -1.2767   -8.4621    0.0000 H   0  0  0  0  0  0  0  0  0  0  0  0
    1.2648   -6.9106    0.0000 H   0  0  0  0  0  0  0  0  0  0  0  0
    1.4619  -10.0908    0.0000 H   0  0  0  0  0  0  0  0  0  0  0  0
   -0.5999   -9.5921    0.0000 H   0  0  0  0  0  0  0  0  0  0  0  0
    1.9607   -8.0290    0.0000 H   0  0  0  0  0  0  0  0  0  0  0  0
    0.0848   -6.9588    0.0000 H   0  0  0  0  0  0  0  0  0  0  0  0
   -1.6561   -7.6349    0.0000 H   0  0  0  0  0  0  0  0  0  0  0  0
   -4.3225   -7.9103    0.0000 H   0  0  0  0  0  0  0  0  0  0  0  0
   -5.6538   -6.0371    0.0000 H   0  0  0  0  0  0  0  0  0  0  0  0
  1  2  2  3
  2  3  1  0
  3  4  1  0
  4  5  1  0
  5  6  1  0
  6  7  1  0
  7  8  1  0
  8  9  1  0
  7 10  1  0
 10 11  1  0
  7 12  1  0
 12 13  1  0
 13 14  1  0
 14 15  1  0
 15 16  1  0
 14 17  1  0
 17 18  1  0
 18 19  1  0
 19 20  1  0
 20 21  1  0
 21 22  1  0
 22 23  1  0
 23 24  1  0
 24 25  1  0
 25 26  1  0
 26 27  1  0
 23 28  1  0
 28 29  1  0
 29 30  1  0
 30 31  1  0
 31 32  1  0
 32 33  1  0
 33 34  1  0
 34 35  2  3
 22 36  1  0
 36 37  1  0
 37 38  1  0
 38 39  1  0
 39 40  1  0
 38 41  1  0
 41 42  1  0
 41 43  1  0
 21 44  1  0
 44  4  1  0
 44  5  1  0
 44  6  1  0
 15 13  1  0
 41 17  1  0
 43 17  1  0
 42 19  1  0
 33 28  1  0
  1 45  1  0
  1 46  1  0
  2 47  1  0
  3 48  1  0
  3 49  1  0
  4 50  1  0
  6 51  1  0
  8 52  1  0
  8 53  1  0
  9 54  1  0
  9 55  1  0
  9 56  1  0
 10 57  1  0
 11 58  1  0
 11 59  1  0
 11 60  1  0
 12 61  1  0
 12 62  1  0
 13 63  1  0
 14 64  1  0
 16 65  1  0
 16 66  1  0
 16 67  1  0
 18 68  1  0
 18 69  1  0
 19 70  1  0
 20 71  1  0
 20 72  1  0
 22 73  1  0
 24 74  1  0
 24 75  1  0
 25 76  1  0
 25 77  1  0
 26 78  1  0
 26 79  1  0
 27 80  1  0
 27 81  1  0
 27 82  1  0
 28 83  1  0
 29 84  1  0
 29 85  1  0
 30 86  1  0
 30 87  1  0
 31 88  1  0
 31 89  1  0
 32 90  1  0
 32 91  1  0
 33 92  1  0
 34 93  1  0
 35 94  1  0
 35 95  1  0
 36 96  1  0
 36 97  1  0
 37 98  1  0
 38 99  1  0
 39100  1  0
 39101  1  0
 40102  1  0
 40103  1  0
 40104  1  0
 42105  1  0
 42106  1  0
 43107  1  0
 43108  1  0
M  END
$$$$
