
     RDKit          2D

 86 90  0  0  0  0  0  0  0  0999 V2000
   -0.7939    1.5076    0.0000 C   0  0  0  0  0  0  0  0  0  0  0  0
   -2.2035    2.0207    0.0000 C   0  0  0  0  0  0  0  0  0  0  0  0
   -3.3525    1.0565    0.0000 C   0  0  0  0  0  0  0  0  0  0  0  0
   -4.3167    2.2056    0.0000 N   0  0  0  0  0  0  0  0  0  0  0  0
   -4.5016    0.0923    0.0000 C   0  0  0  0  0  0  0  0  0  0  0  0
   -5.6507   -0.8719    0.0000 C   0  0  0  0  0  0  0  0  0  0  0  0
   -6.6148    0.2772    0.0000 N   0  0  0  0  0  0  0  0  0  0  0  0
   -6.1018    1.6867    0.0000 C   0  0  0  0  0  0  0  0  0  0  0  0
   -5.5888    3.0963    0.0000 C   0  0  0  0  0  0  0  0  0  0  0  0
   -6.8878    3.8463    0.0000 C   0  0  0  0  0  0  0  0  0  0  0  0
   -6.8878    5.3463    0.0000 C   0  0  0  0  0  0  0  0  0  0  0  0
   -5.5888    6.0963    0.0000 C   0  0  0  0  0  0  0  0  0  0  0  0
   -6.1018    7.5058    0.0000 C   0  0  0  0  0  0  0  0  0  0  0  0
   -6.6148    8.9153    0.0000 C   0  0  0  0  0  0  0  0  0  0  0  0
   -5.5888    4.5963    0.0000 C   0  0  0  0  0  0  0  0  0  0  0  0
   -6.7997   -1.8361    0.0000 C   0  0  0  0  0  0  0  0  0  0  0  0
   -5.9828   -3.0941    0.0000 F   0  0  0  0  0  0  0  0  0  0  0  0
   -7.9488   -2.8002    0.0000 N   0  0  0  0  0  0  0  0  0  0  0  0
   -7.6883   -4.2775    0.0000 N   0  0  0  0  0  0  0  0  0  0  0  0
   -8.8374   -5.2416    0.0000 C   0  0  0  0  0  0  0  0  0  0  0  0
   -3.5374   -1.0568    0.0000 C   0  0  0  0  0  0  0  0  0  0  0  0
   -2.2384   -0.3068    0.0000 N   0  0  0  0  0  0  0  0  0  0  0  0
   -0.9393   -1.0568    0.0000 C   0  0  0  0  0  0  0  0  0  0  0  0
    0.3597   -1.8068    0.0000 F   0  0  0  0  0  0  0  0  0  0  0  0
   -3.0244   -2.4663    0.0000 C   0  0  0  0  0  0  0  0  0  0  0  0
   -1.5472   -2.2058    0.0000 F   0  0  0  0  0  0  0  0  0  0  0  0
   -4.5016   -2.2058    0.0000 C   0  0  0  0  0  0  0  0  0  0  0  0
   -5.0146   -3.6154    0.0000 C   0  0  0  0  0  0  0  0  0  0  0  0
   -5.5276   -5.0249    0.0000 C   0  0  0  0  0  0  0  0  0  0  0  0
   -6.0407   -6.4344    0.0000 C   0  0  0  0  0  0  0  0  0  0  0  0
   -6.5537   -7.8440    0.0000 C   0  0  0  0  0  0  0  0  0  0  0  0
   -7.9019   -7.1864    0.0000 C   0  0  0  0  0  0  0  0  0  0  0  0
   -7.3486   -9.1161    0.0000 O   0  0  0  0  0  0  0  0  0  0  0  0
   -6.3844  -10.2651    0.0000 O   0  0  0  0  0  0  0  0  0  0  0  0
   -4.9936   -9.7032    0.0000 C   0  0  0  0  0  0  0  0  0  0  0  0
   -5.0983   -8.2069    0.0000 C   0  0  0  0  0  0  0  0  0  0  0  0
   -3.5992   -8.2592    0.0000 C   0  0  0  0  0  0  0  0  0  0  0  0
   -4.8895   -6.7215    0.0000 N   0  0  0  0  0  0  0  0  0  0  0  0
   -3.4987   -6.1596    0.0000 O   0  0  0  0  0  0  0  0  0  0  0  0
    0.3552    2.4718    0.0000 H   0  0  0  0  0  0  0  0  0  0  0  0
   -0.1837    0.1374    0.0000 H   0  0  0  0  0  0  0  0  0  0  0  0
   -2.4639    3.4979    0.0000 H   0  0  0  0  0  0  0  0  0  0  0  0
   -2.6359    0.5359    0.0000 H   0  0  0  0  0  0  0  0  0  0  0  0
   -3.6357    3.5420    0.0000 H   0  0  0  0  0  0  0  0  0  0  0  0
   -5.0992    2.3577    0.0000 H   0  0  0  0  0  0  0  0  0  0  0  0
   -5.1591    1.4405    0.0000 H   0  0  0  0  0  0  0  0  0  0  0  0
   -4.9932   -2.2201    0.0000 H   0  0  0  0  0  0  0  0  0  0  0  0
   -8.1128    0.1987    0.0000 H   0  0  0  0  0  0  0  0  0  0  0  0
   -7.5113    2.1998    0.0000 H   0  0  0  0  0  0  0  0  0  0  0  0
   -4.6402    1.3493    0.0000 H   0  0  0  0  0  0  0  0  0  0  0  0
   -4.1164    3.3826    0.0000 H   0  0  0  0  0  0  0  0  0  0  0  0
   -8.1869    3.0963    0.0000 H   0  0  0  0  0  0  0  0  0  0  0  0
   -8.1869    6.0963    0.0000 H   0  0  0  0  0  0  0  0  0  0  0  0
   -4.1116    6.3567    0.0000 H   0  0  0  0  0  0  0  0  0  0  0  0
   -4.6923    8.0188    0.0000 H   0  0  0  0  0  0  0  0  0  0  0  0
   -7.5113    6.9928    0.0000 H   0  0  0  0  0  0  0  0  0  0  0  0
   -7.1279   10.3249    0.0000 H   0  0  0  0  0  0  0  0  0  0  0  0
   -5.2053    9.4284    0.0000 H   0  0  0  0  0  0  0  0  0  0  0  0
   -8.0244    8.4023    0.0000 H   0  0  0  0  0  0  0  0  0  0  0  0
   -7.8968   -0.8131    0.0000 H   0  0  0  0  0  0  0  0  0  0  0  0
   -9.3583   -2.2872    0.0000 H   0  0  0  0  0  0  0  0  0  0  0  0
   -6.5563   -5.2616    0.0000 H   0  0  0  0  0  0  0  0  0  0  0  0
  -10.0954   -6.0586    0.0000 H   0  0  0  0  0  0  0  0  0  0  0  0
   -8.1799   -6.5899    0.0000 H   0  0  0  0  0  0  0  0  0  0  0  0
   -9.8016   -4.0926    0.0000 H   0  0  0  0  0  0  0  0  0  0  0  0
   -2.2384    1.1932    0.0000 H   0  0  0  0  0  0  0  0  0  0  0  0
    0.1027    0.0222    0.0000 H   0  0  0  0  0  0  0  0  0  0  0  0
   -0.1893    0.2423    0.0000 H   0  0  0  0  0  0  0  0  0  0  0  0
   -2.6614   -3.9217    0.0000 H   0  0  0  0  0  0  0  0  0  0  0  0
   -5.9435   -1.7925    0.0000 H   0  0  0  0  0  0  0  0  0  0  0  0
   -3.6051   -4.1284    0.0000 H   0  0  0  0  0  0  0  0  0  0  0  0
   -6.4762   -3.2780    0.0000 H   0  0  0  0  0  0  0  0  0  0  0  0
   -4.0359   -5.1816    0.0000 H   0  0  0  0  0  0  0  0  0  0  0  0
   -7.0274   -5.0512    0.0000 H   0  0  0  0  0  0  0  0  0  0  0  0
   -4.5489   -6.5912    0.0000 H   0  0  0  0  0  0  0  0  0  0  0  0
   -7.4502   -5.9214    0.0000 H   0  0  0  0  0  0  0  0  0  0  0  0
   -9.3202   -6.6981    0.0000 H   0  0  0  0  0  0  0  0  0  0  0  0
   -8.5595   -8.5346    0.0000 H   0  0  0  0  0  0  0  0  0  0  0  0
   -7.2443   -5.8382    0.0000 H   0  0  0  0  0  0  0  0  0  0  0  0
   -4.5802  -11.1451    0.0000 H   0  0  0  0  0  0  0  0  0  0  0  0
   -3.4957   -9.6248    0.0000 H   0  0  0  0  0  0  0  0  0  0  0  0
   -2.1001   -8.3116    0.0000 H   0  0  0  0  0  0  0  0  0  0  0  0
   -3.4684   -9.7535    0.0000 H   0  0  0  0  0  0  0  0  0  0  0  0
   -3.1856   -6.8173    0.0000 H   0  0  0  0  0  0  0  0  0  0  0  0
   -5.8129   -5.5394    0.0000 H   0  0  0  0  0  0  0  0  0  0  0  0
   -2.9367   -4.7688    0.0000 H   0  0  0  0  0  0  0  0  0  0  0  0
  1  2  2  3
  2  3  1  0
  3  4  1  0
  3  5  1  0
  5  6  1  0
  6  7  1  0
  7  8  1  0
  8  9  1  0
  9 10  1  0
 10 11  1  0
 11 12  1  0
 12 13  1  0
 13 14  1  0
 15 12  1  6
  6 16  1  0
 16 17  1  0
 16 18  1  0
 18 19  1  0
 19 20  1  0
  5 21  1  0
 21 22  1  6
 22 23  1  0
 23 24  1  0
 21 25  1  0
 25 26  1  0
 25 27  1  0
 27 28  1  0
 28 29  1  0
 29 30  1  0
 31 30  1  6
 31 32  1  0
 31 33  1  0
 33 34  1  0
 34 35  1  0
 35 36  1  0
 36 37  1  0
 36 38  1  6
 38 39  1  0
 15  9  1  0
 27 21  1  0
 36 31  1  0
 15 10  1  0
 15 11  1  0
  1 40  1  0
  1 41  1  0
  2 42  1  0
  3 43  1  6
  4 44  1  0
  4 45  1  0
  5 46  1  6
  6 47  1  6
  7 48  1  0
  8 49  1  0
  8 50  1  0
  9 51  1  1
 10 52  1  6
 11 53  1  6
 12 54  1  1
 13 55  1  0
 13 56  1  0
 14 57  1  0
 14 58  1  0
 14 59  1  0
 16 60  1  6
 18 61  1  0
 19 62  1  0
 20 63  1  0
 20 64  1  0
 20 65  1  0
 22 66  1  0
 23 67  1  0
 23 68  1  0
 25 69  1  1
 27 70  1  1
 28 71  1  0
 28 72  1  0
 29 73  1  0
 29 74  1  0
 30 75  1  0
 30 76  1  0
 32 77  1  0
 32 78  1  0
 32 79  1  0
 35 80  1  0
 35 81  1  0
 37 82  1  0
 37 83  1  0
 37 84  1  0
 38 85  1  0
 39 86  1  0
M  END
$$$$
