
     RDKit          2D

 58 67  0  0  0  0  0  0  0  0999 V2000
   -2.1098   -6.8458    0.0000 C   0  0  0  0  0  0  0  0  0  0  0  0
   -3.6016   -7.0026    0.0000 C   0  0  0  0  0  0  0  0  0  0  0  0
   -3.7063   -8.4990    0.0000 O   0  0  0  0  0  0  0  0  0  0  0  0
   -4.0151   -5.5607    0.0000 C   0  0  0  0  0  0  0  0  0  0  0  0
   -4.8968   -4.3472    0.0000 C   0  0  0  0  0  0  0  0  0  0  0  0
   -5.7784   -3.1337    0.0000 C   0  0  0  0  0  0  0  0  0  0  0  0
   -6.6601   -1.9201    0.0000 C   0  0  0  0  0  0  0  0  0  0  0  0
   -7.5418   -0.7066    0.0000 C   0  0  0  0  0  0  0  0  0  0  0  0
   -8.1519    0.6637    0.0000 C   0  0  0  0  0  0  0  0  0  0  0  0
   -9.7132    0.6631    0.0000 C   0  0  0  0  0  0  0  0  0  0  0  0
   -8.4997   -0.2185    0.0000 C   0  0  0  0  0  0  0  0  0  0  0  0
   -8.6565   -1.7103    0.0000 C   0  0  0  0  0  0  0  0  0  0  0  0
   -9.8700   -0.8286    0.0000 C   0  0  0  0  0  0  0  0  0  0  0  0
   -5.4466   -1.0385    0.0000 C   0  0  0  0  0  0  0  0  0  0  0  0
   -4.5649   -2.2520    0.0000 C   0  0  0  0  0  0  0  0  0  0  0  0
   -3.2518   -2.9771    0.0000 C   0  0  0  0  0  0  0  0  0  0  0  0
   -1.8662   -2.4025    0.0000 O   0  0  0  0  0  0  0  0  0  0  0  0
    0.8660    0.0000    0.0000 C   0  0  0  0  0  0  0  0  0  0  0  0
   -0.4330    0.7500    0.0000 C   0  0  0  0  0  0  0  0  0  0  0  0
   -1.8596    1.2135    0.0000 C   0  0  0  0  0  0  0  0  0  0  0  0
   -2.7413    0.0000    0.0000 C   0  0  0  0  0  0  0  0  0  0  0  0
   -1.8596   -1.2135    0.0000 C   0  0  0  0  0  0  0  0  0  0  0  0
   -0.4330   -0.7500    0.0000 C   0  0  0  0  0  0  0  0  0  0  0  0
   -3.3514   -1.3703    0.0000 C   0  0  0  0  0  0  0  0  0  0  0  0
   -4.2331   -0.1568    0.0000 C   0  0  0  0  0  0  0  0  0  0  0  0
   -5.0571   -6.6397    0.0000 C   0  0  0  0  0  0  0  0  0  0  0  0
   -5.6672   -8.0101    0.0000 O   0  0  0  0  0  0  0  0  0  0  0  0
   -6.3006   -5.8009    0.0000 O   0  0  0  0  0  0  0  0  0  0  0  0
   -0.6181   -6.6890    0.0000 H   0  0  0  0  0  0  0  0  0  0  0  0
   -1.9530   -8.3376    0.0000 H   0  0  0  0  0  0  0  0  0  0  0  0
   -2.0886   -5.6310    0.0000 H   0  0  0  0  0  0  0  0  0  0  0  0
   -5.0544   -9.1565    0.0000 H   0  0  0  0  0  0  0  0  0  0  0  0
   -2.9230   -5.0281    0.0000 H   0  0  0  0  0  0  0  0  0  0  0  0
   -3.4478   -3.9591    0.0000 H   0  0  0  0  0  0  0  0  0  0  0  0
   -6.1485   -4.8529    0.0000 H   0  0  0  0  0  0  0  0  0  0  0  0
   -5.0393   -2.8351    0.0000 H   0  0  0  0  0  0  0  0  0  0  0  0
   -6.9920   -4.0154    0.0000 H   0  0  0  0  0  0  0  0  0  0  0  0
   -7.7571   -2.9432    0.0000 H   0  0  0  0  0  0  0  0  0  0  0  0
   -6.3439    0.1961    0.0000 H   0  0  0  0  0  0  0  0  0  0  0  0
   -6.7924    1.2977    0.0000 H   0  0  0  0  0  0  0  0  0  0  0  0
   -8.4638    2.1309    0.0000 H   0  0  0  0  0  0  0  0  0  0  0  0
  -10.3233    2.0335    0.0000 H   0  0  0  0  0  0  0  0  0  0  0  0
   -7.1294    0.3916    0.0000 H   0  0  0  0  0  0  0  0  0  0  0  0
   -8.2180   -3.1448    0.0000 H   0  0  0  0  0  0  0  0  0  0  0  0
  -11.2403   -1.4387    0.0000 H   0  0  0  0  0  0  0  0  0  0  0  0
   -6.0084    0.3523    0.0000 H   0  0  0  0  0  0  0  0  0  0  0  0
   -4.6172   -3.7511    0.0000 H   0  0  0  0  0  0  0  0  0  0  0  0
   -3.6085   -4.4340    0.0000 H   0  0  0  0  0  0  0  0  0  0  0  0
   -2.2407   -4.0851    0.0000 H   0  0  0  0  0  0  0  0  0  0  0  0
    2.3660    0.0000    0.0000 H   0  0  0  0  0  0  0  0  0  0  0  0
    0.1771    2.1203    0.0000 H   0  0  0  0  0  0  0  0  0  0  0  0
   -1.2495    2.5838    0.0000 H   0  0  0  0  0  0  0  0  0  0  0  0
   -3.1586    1.9635    0.0000 H   0  0  0  0  0  0  0  0  0  0  0  0
   -1.9120   -2.7126    0.0000 H   0  0  0  0  0  0  0  0  0  0  0  0
    0.1771   -2.1203    0.0000 H   0  0  0  0  0  0  0  0  0  0  0  0
   -4.7706    1.2436    0.0000 H   0  0  0  0  0  0  0  0  0  0  0  0
   -7.1590   -8.1668    0.0000 H   0  0  0  0  0  0  0  0  0  0  0  0
   -7.6488   -6.4585    0.0000 H   0  0  0  0  0  0  0  0  0  0  0  0
  1  2  1  0
  2  3  1  0
  2  4  1  0
  4  5  1  0
  5  6  1  0
  6  7  1  0
  7  8  1  0
  8  9  1  0
  9 10  1  0
 10 11  1  0
 11 12  1  0
 12 13  1  0
  7 14  1  0
 14 15  1  0
 15 16  1  0
 16 17  1  0
 17 18  1  0
 18 19  1  0
 19 20  1  0
 20 21  1  0
 21 22  1  0
 22 23  1  0
 22 24  1  0
 24 25  1  0
  4 26  1  0
 26 27  1  0
 26 28  1  0
 26  2  1  0
 12  8  1  0
 25 14  1  0
 13 10  1  0
 24 15  1  0
 13 11  1  0
 23 18  1  0
 23 19  1  0
 24 21  1  0
 25 21  1  0
  1 29  1  0
  1 30  1  0
  1 31  1  0
  3 32  1  0
  4 33  1  0
  5 34  1  0
  5 35  1  0
  6 36  1  0
  6 37  1  0
  7 38  1  0
  8 39  1  0
  9 40  1  0
  9 41  1  0
 10 42  1  0
 11 43  1  0
 12 44  1  0
 13 45  1  0
 14 46  1  0
 15 47  1  0
 16 48  1  0
 16 49  1  0
 18 50  1  0
 19 51  1  0
 20 52  1  0
 20 53  1  0
 22 54  1  0
 23 55  1  0
 25 56  1  0
 27 57  1  0
 28 58  1  0
M  END
$$$$
