
     RDKit          2D

 56 58  0  0  0  0  0  0  0  0999 V2000
    0.8244    5.2877    0.0000 C   0  0  0  0  0  0  0  0  0  0  0  0
   -0.1793    4.1730    0.0000 C   0  0  0  0  0  0  0  0  0  0  0  0
   -1.1830    3.0583    0.0000 C   0  0  0  0  0  0  0  0  0  0  0  0
    0.0305    2.1766    0.0000 C   0  0  0  0  0  0  0  0  0  0  0  0
   -0.4330    0.7500    0.0000 C   0  0  0  0  0  0  0  0  0  0  0  0
    0.8660    0.0000    0.0000 C   0  0  0  0  0  0  0  0  0  0  0  0
   -0.4330   -0.7500    0.0000 C   0  0  0  0  0  0  0  0  0  0  0  0
   -0.0448   -2.1989    0.0000 C   0  0  0  0  0  0  0  0  0  0  0  0
    0.3434   -3.6478    0.0000 C   0  0  0  0  0  0  0  0  0  0  0  0
    0.7317   -5.0967    0.0000 C   0  0  0  0  0  0  0  0  0  0  0  0
    1.1199   -6.5456    0.0000 O   0  0  0  0  0  0  0  0  0  0  0  0
   -1.9330   -0.7500    0.0000 C   0  0  0  0  0  0  0  0  0  0  0  0
   -1.9330    0.7500    0.0000 C   0  0  0  0  0  0  0  0  0  0  0  0
   -3.4145    0.5153    0.0000 C   0  0  0  0  0  0  0  0  0  0  0  0
   -4.8961    0.2807    0.0000 C   0  0  0  0  0  0  0  0  0  0  0  0
   -6.3776    0.0460    0.0000 C   0  0  0  0  0  0  0  0  0  0  0  0
   -7.8591   -0.1886    0.0000 C   0  0  0  0  0  0  0  0  0  0  0  0
   -9.3407   -0.4233    0.0000 C   0  0  0  0  0  0  0  0  0  0  0  0
  -10.8222   -0.6579    0.0000 C   0  0  0  0  0  0  0  0  0  0  0  0
  -12.3037   -0.8926    0.0000 N   0  0  0  0  0  0  0  0  0  0  0  0
   -2.3965    2.1766    0.0000 C   0  0  0  0  0  0  0  0  0  0  0  0
    1.8281    6.4024    0.0000 H   0  0  0  0  0  0  0  0  0  0  0  0
    1.9391    4.2840    0.0000 H   0  0  0  0  0  0  0  0  0  0  0  0
   -0.2903    6.2914    0.0000 H   0  0  0  0  0  0  0  0  0  0  0  0
    0.4737    3.7158    0.0000 H   0  0  0  0  0  0  0  0  0  0  0  0
   -1.2940    5.1767    0.0000 H   0  0  0  0  0  0  0  0  0  0  0  0
   -2.1867    4.1730    0.0000 H   0  0  0  0  0  0  0  0  0  0  0  0
    1.4650    1.7381    0.0000 H   0  0  0  0  0  0  0  0  0  0  0  0
    0.5103    2.8132    0.0000 H   0  0  0  0  0  0  0  0  0  0  0  0
    1.9631    1.0230    0.0000 H   0  0  0  0  0  0  0  0  0  0  0  0
    1.9631   -1.0230    0.0000 H   0  0  0  0  0  0  0  0  0  0  0  0
   -1.4355   -2.7608    0.0000 H   0  0  0  0  0  0  0  0  0  0  0  0
    1.4406   -1.9902    0.0000 H   0  0  0  0  0  0  0  0  0  0  0  0
    1.7923   -3.2595    0.0000 H   0  0  0  0  0  0  0  0  0  0  0  0
   -1.1054   -4.0360    0.0000 H   0  0  0  0  0  0  0  0  0  0  0  0
   -0.7172   -5.4849    0.0000 H   0  0  0  0  0  0  0  0  0  0  0  0
    2.1806   -4.7084    0.0000 H   0  0  0  0  0  0  0  0  0  0  0  0
    2.5688   -6.9338    0.0000 H   0  0  0  0  0  0  0  0  0  0  0  0
   -3.4218   -0.9328    0.0000 H   0  0  0  0  0  0  0  0  0  0  0  0
   -2.1159   -2.2388    0.0000 H   0  0  0  0  0  0  0  0  0  0  0  0
   -3.8280    1.9572    0.0000 H   0  0  0  0  0  0  0  0  0  0  0  0
   -3.3622   -0.9837    0.0000 H   0  0  0  0  0  0  0  0  0  0  0  0
   -4.6614   -1.2008    0.0000 H   0  0  0  0  0  0  0  0  0  0  0  0
   -5.1307    1.7622    0.0000 H   0  0  0  0  0  0  0  0  0  0  0  0
   -6.6123    1.5276    0.0000 H   0  0  0  0  0  0  0  0  0  0  0  0
   -6.1430   -1.4355    0.0000 H   0  0  0  0  0  0  0  0  0  0  0  0
   -7.6245   -1.6701    0.0000 H   0  0  0  0  0  0  0  0  0  0  0  0
   -8.0938    1.2929    0.0000 H   0  0  0  0  0  0  0  0  0  0  0  0
   -9.5753    1.0583    0.0000 H   0  0  0  0  0  0  0  0  0  0  0  0
   -9.1060   -1.9048    0.0000 H   0  0  0  0  0  0  0  0  0  0  0  0
  -10.5876   -2.1394    0.0000 H   0  0  0  0  0  0  0  0  0  0  0  0
  -11.0569    0.8236    0.0000 H   0  0  0  0  0  0  0  0  0  0  0  0
  -13.2477    0.2732    0.0000 H   0  0  0  0  0  0  0  0  0  0  0  0
  -12.8413   -2.2929    0.0000 H   0  0  0  0  0  0  0  0  0  0  0  0
   -3.1465    3.4756    0.0000 H   0  0  0  0  0  0  0  0  0  0  0  0
   -3.8310    1.7381    0.0000 H   0  0  0  0  0  0  0  0  0  0  0  0
  1  2  1  0
  2  3  1  0
  3  4  1  0
  5  4  1  1
  5  6  1  0
  6  7  1  0
  7  8  1  1
  8  9  1  0
  9 10  1  0
 10 11  1  0
  7 12  1  0
 12 13  1  0
 13 14  1  6
 14 15  1  0
 15 16  1  0
 16 17  1  0
 17 18  1  0
 18 19  1  0
 19 20  1  0
 13 21  1  0
 21  3  1  0
  7  5  1  0
 13  5  1  0
  1 22  1  0
  1 23  1  0
  1 24  1  0
  2 25  1  0
  2 26  1  0
  3 27  1  6
  4 28  1  0
  4 29  1  0
  6 30  1  0
  6 31  1  0
  8 32  1  0
  8 33  1  0
  9 34  1  0
  9 35  1  0
 10 36  1  0
 10 37  1  0
 11 38  1  0
 12 39  1  0
 12 40  1  0
 14 41  1  0
 14 42  1  0
 15 43  1  0
 15 44  1  0
 16 45  1  0
 16 46  1  0
 17 47  1  0
 17 48  1  0
 18 49  1  0
 18 50  1  0
 19 51  1  0
 19 52  1  0
 20 53  1  0
 20 54  1  0
 21 55  1  0
 21 56  1  0
M  END
$$$$
