
     RDKit          2D

 48 49  0  0  0  0  0  0  0  0999 V2000
    3.1935    3.4746    0.0000 C   0  0  0  0  0  0  0  0  0  0  0  0
    3.5054    2.0074    0.0000 C   0  0  0  0  0  0  0  0  0  0  0  0
    2.3907    1.0037    0.0000 C   0  0  0  0  0  0  0  0  0  0  0  0
    1.2760    0.0000    0.0000 C   0  0  0  0  0  0  0  0  0  0  0  0
    0.3943    1.2135    0.0000 C   0  0  0  0  0  0  0  0  0  0  0  0
   -1.0323    0.7500    0.0000 C   0  0  0  0  0  0  0  0  0  0  0  0
   -1.0323   -0.7500    0.0000 C   0  0  0  0  0  0  0  0  0  0  0  0
    0.3943   -1.2135    0.0000 C   0  0  0  0  0  0  0  0  0  0  0  0
    1.6933   -1.9635    0.0000 C   0  0  0  0  0  0  0  0  0  0  0  0
    2.9924   -2.7135    0.0000 C   0  0  0  0  0  0  0  0  0  0  0  0
    4.2914   -3.4635    0.0000 C   0  0  0  0  0  0  0  0  0  0  0  0
    5.0414   -2.1645    0.0000 O   0  0  0  0  0  0  0  0  0  0  0  0
    5.5905   -4.2135    0.0000 C   0  0  0  0  0  0  0  0  0  0  0  0
    4.8405   -5.5126    0.0000 O   0  0  0  0  0  0  0  0  0  0  0  0
    6.4932   -3.0156    0.0000 F   0  0  0  0  0  0  0  0  0  0  0  0
    6.8895   -4.9635    0.0000 C   0  0  0  0  0  0  0  0  0  0  0  0
    7.8537   -6.1126    0.0000 O   0  0  0  0  0  0  0  0  0  0  0  0
    6.3765   -6.3731    0.0000 C   0  0  0  0  0  0  0  0  0  0  0  0
    6.3765   -7.8731    0.0000 C   0  0  0  0  0  0  0  0  0  0  0  0
    6.3765   -9.3731    0.0000 C   0  0  0  0  0  0  0  0  0  0  0  0
    5.0774  -10.1231    0.0000 C   0  0  0  0  0  0  0  0  0  0  0  0
    4.3083    4.4783    0.0000 H   0  0  0  0  0  0  0  0  0  0  0  0
    1.7670    3.9381    0.0000 H   0  0  0  0  0  0  0  0  0  0  0  0
    4.9320    1.5439    0.0000 H   0  0  0  0  0  0  0  0  0  0  0  0
    3.3944   -0.1110    0.0000 H   0  0  0  0  0  0  0  0  0  0  0  0
    1.9335    1.6567    0.0000 H   0  0  0  0  0  0  0  0  0  0  0  0
    2.5047   -0.8603    0.0000 H   0  0  0  0  0  0  0  0  0  0  0  0
   -0.2158    2.5838    0.0000 H   0  0  0  0  0  0  0  0  0  0  0  0
    1.0309    1.6933    0.0000 H   0  0  0  0  0  0  0  0  0  0  0  0
   -2.5241    0.5932    0.0000 H   0  0  0  0  0  0  0  0  0  0  0  0
   -1.3442    2.2172    0.0000 H   0  0  0  0  0  0  0  0  0  0  0  0
   -1.3442   -2.2172    0.0000 H   0  0  0  0  0  0  0  0  0  0  0  0
   -2.5241   -0.5932    0.0000 H   0  0  0  0  0  0  0  0  0  0  0  0
   -0.2158   -2.5838    0.0000 H   0  0  0  0  0  0  0  0  0  0  0  0
    0.9433   -3.2626    0.0000 H   0  0  0  0  0  0  0  0  0  0  0  0
    2.5961   -0.7656    0.0000 H   0  0  0  0  0  0  0  0  0  0  0  0
    2.2424   -4.0126    0.0000 H   0  0  0  0  0  0  0  0  0  0  0  0
    3.7424   -1.4145    0.0000 H   0  0  0  0  0  0  0  0  0  0  0  0
    3.5414   -4.7626    0.0000 H   0  0  0  0  0  0  0  0  0  0  0  0
    6.5302   -1.9816    0.0000 H   0  0  0  0  0  0  0  0  0  0  0  0
    5.5905   -6.8116    0.0000 H   0  0  0  0  0  0  0  0  0  0  0  0
    7.8537   -3.8145    0.0000 H   0  0  0  0  0  0  0  0  0  0  0  0
    4.8801   -6.4778    0.0000 H   0  0  0  0  0  0  0  0  0  0  0  0
    4.8765   -7.8731    0.0000 H   0  0  0  0  0  0  0  0  0  0  0  0
    7.8765   -7.8731    0.0000 H   0  0  0  0  0  0  0  0  0  0  0  0
    7.6755  -10.1231    0.0000 H   0  0  0  0  0  0  0  0  0  0  0  0
    5.0774  -11.6231    0.0000 H   0  0  0  0  0  0  0  0  0  0  0  0
    3.7784   -9.3731    0.0000 H   0  0  0  0  0  0  0  0  0  0  0  0
  1  2  2  3
  2  3  1  0
  3  4  1  0
  4  5  1  0
  5  6  1  0
  6  7  1  0
  7  8  1  0
  8  9  1  0
  9 10  1  0
 10 11  1  0
 11 12  1  0
 11 13  1  0
 13 14  1  0
 13 15  1  1
 13 16  1  0
 16 17  1  0
 17 18  1  0
 18 19  1  0
 19 20  1  0
 20 21  2  3
  8  4  1  0
 18 16  1  0
  1 22  1  0
  1 23  1  0
  2 24  1  0
  3 25  1  0
  3 26  1  0
  4 27  1  1
  5 28  1  0
  5 29  1  0
  6 30  1  0
  6 31  1  0
  7 32  1  0
  7 33  1  0
  8 34  1  1
  9 35  1  0
  9 36  1  0
 10 37  1  0
 10 38  1  0
 11 39  1  1
 12 40  1  0
 14 41  1  0
 16 42  1  1
 18 43  1  1
 19 44  1  0
 19 45  1  0
 20 46  1  0
 21 47  1  0
 21 48  1  0
M  END
$$$$
