
     RDKit          2D

 44 47  0  0  0  0  0  0  0  0999 V2000
   -6.3419   -4.2709    0.0000 C   0  0  0  0  0  0  0  0  0  0  0  0
   -5.3777   -5.4200    0.0000 C   0  0  0  0  0  0  0  0  0  0  0  0
   -3.9005   -5.1595    0.0000 C   0  0  0  0  0  0  0  0  0  0  0  0
   -3.3874   -6.5691    0.0000 C   0  0  0  0  0  0  0  0  0  0  0  0
   -2.4233   -5.4200    0.0000 C   0  0  0  0  0  0  0  0  0  0  0  0
   -1.9102   -4.0105    0.0000 N   0  0  0  0  0  0  0  0  0  0  0  0
   -2.8744   -2.8614    0.0000 C   0  0  0  0  0  0  0  0  0  0  0  0
   -0.4330   -3.7500    0.0000 C   0  0  0  0  0  0  0  0  0  0  0  0
   -0.4330   -2.2500    0.0000 C   0  0  0  0  0  0  0  0  0  0  0  0
    1.0670   -2.2500    0.0000 O   0  0  0  0  0  0  0  0  0  0  0  0
   -0.4330   -0.7500    0.0000 C   0  0  0  0  0  0  0  0  0  0  0  0
   -1.7321    0.0000    0.0000 N   0  0  0  0  0  0  0  0  0  0  0  0
   -0.4330    0.7500    0.0000 C   0  0  0  0  0  0  0  0  0  0  0  0
   -0.4330    2.2500    0.0000 C   0  0  0  0  0  0  0  0  0  0  0  0
   -0.4330    3.7500    0.0000 C   0  0  0  0  0  0  0  0  0  0  0  0
   -0.4330    5.2500    0.0000 C   0  0  0  0  0  0  0  0  0  0  0  0
   -0.4330    6.7500    0.0000 O   0  0  0  0  0  0  0  0  0  0  0  0
    0.8660    0.0000    0.0000 O   0  0  0  0  0  0  0  0  0  0  0  0
    0.0800   -5.1595    0.0000 N   0  0  0  0  0  0  0  0  0  0  0  0
    1.0442   -4.0105    0.0000 C   0  0  0  0  0  0  0  0  0  0  0  0
    2.3432   -4.7605    0.0000 O   0  0  0  0  0  0  0  0  0  0  0  0
   -7.8191   -4.5314    0.0000 H   0  0  0  0  0  0  0  0  0  0  0  0
   -5.8288   -2.8614    0.0000 H   0  0  0  0  0  0  0  0  0  0  0  0
   -5.8907   -6.8296    0.0000 H   0  0  0  0  0  0  0  0  0  0  0  0
   -4.0084   -4.2804    0.0000 H   0  0  0  0  0  0  0  0  0  0  0  0
   -2.4233   -7.7181    0.0000 H   0  0  0  0  0  0  0  0  0  0  0  0
   -4.6865   -7.3191    0.0000 H   0  0  0  0  0  0  0  0  0  0  0  0
   -1.1242   -6.1700    0.0000 H   0  0  0  0  0  0  0  0  0  0  0  0
   -3.8386   -1.7123    0.0000 H   0  0  0  0  0  0  0  0  0  0  0  0
   -3.6173   -3.3438    0.0000 H   0  0  0  0  0  0  0  0  0  0  0  0
   -2.2704   -2.2136    0.0000 H   0  0  0  0  0  0  0  0  0  0  0  0
   -1.3121   -2.1420    0.0000 H   0  0  0  0  0  0  0  0  0  0  0  0
    1.5099   -3.0171    0.0000 H   0  0  0  0  0  0  0  0  0  0  0  0
   -3.2321    0.0000    0.0000 H   0  0  0  0  0  0  0  0  0  0  0  0
    1.0670    2.2500    0.0000 H   0  0  0  0  0  0  0  0  0  0  0  0
   -1.9330    2.2500    0.0000 H   0  0  0  0  0  0  0  0  0  0  0  0
   -1.9330    3.7500    0.0000 H   0  0  0  0  0  0  0  0  0  0  0  0
    1.0670    3.7500    0.0000 H   0  0  0  0  0  0  0  0  0  0  0  0
    1.0670    5.2500    0.0000 H   0  0  0  0  0  0  0  0  0  0  0  0
   -1.9330    5.2500    0.0000 H   0  0  0  0  0  0  0  0  0  0  0  0
   -1.7321    7.5000    0.0000 H   0  0  0  0  0  0  0  0  0  0  0  0
   -0.1805   -6.6368    0.0000 H   0  0  0  0  0  0  0  0  0  0  0  0
    1.5395   -3.2762    0.0000 H   0  0  0  0  0  0  0  0  0  0  0  0
    3.6423   -4.0105    0.0000 H   0  0  0  0  0  0  0  0  0  0  0  0
  1  2  2  3
  2  3  1  0
  3  4  1  0
  4  5  1  0
  5  6  1  0
  6  7  1  0
  8  6  1  6
  8  9  1  0
  9 10  1  0
  9 11  1  0
 11 12  1  0
 12 13  1  0
 13 14  1  6
 14 15  1  0
 15 16  1  0
 16 17  1  0
 13 18  1  0
  8 19  1  0
 19 20  1  0
 20 21  1  0
  5  3  1  0
 20  8  1  0
 13 11  1  0
 11 18  1  6
  1 22  1  0
  1 23  1  0
  2 24  1  0
  3 25  1  1
  4 26  1  0
  4 27  1  0
  5 28  1  1
  7 29  1  0
  7 30  1  0
  7 31  1  0
  9 32  1  1
 10 33  1  0
 12 34  1  0
 14 35  1  0
 14 36  1  0
 15 37  1  0
 15 38  1  0
 16 39  1  0
 16 40  1  0
 17 41  1  0
 19 42  1  0
 20 43  1  1
 21 44  1  0
M  END
$$$$
