
     RDKit          2D

 39 45  0  0  0  0  0  0  0  0999 V2000
   -0.6066   -5.0216    0.0000 C   0  0  0  0  0  0  0  0  0  0  0  0
   -1.1806   -3.6358    0.0000 C   0  0  0  0  0  0  0  0  0  0  0  0
   -0.4330   -2.2500    0.0000 C   0  0  0  0  0  0  0  0  0  0  0  0
    0.8660   -3.0000    0.0000 C   0  0  0  0  0  0  0  0  0  0  0  0
    2.1651   -2.2500    0.0000 C   0  0  0  0  0  0  0  0  0  0  0  0
    2.1651   -0.7500    0.0000 C   0  0  0  0  0  0  0  0  0  0  0  0
    0.8660    0.0000    0.0000 C   0  0  0  0  0  0  0  0  0  0  0  0
   -0.4330    0.7500    0.0000 C   0  0  0  0  0  0  0  0  0  0  0  0
   -1.9330    0.7500    0.0000 C   0  0  0  0  0  0  0  0  0  0  0  0
   -1.9330   -0.7500    0.0000 C   0  0  0  0  0  0  0  0  0  0  0  0
   -0.4330   -0.7500    0.0000 C   0  0  0  0  0  0  0  0  0  0  0  0
    3.6522   -2.4458    0.0000 C   0  0  0  0  0  0  0  0  0  0  0  0
    3.6140   -4.6334    0.0000 C   0  0  0  0  0  0  0  0  0  0  0  0
    3.2257   -6.0823    0.0000 C   0  0  0  0  0  0  0  0  0  0  0  0
    2.1651   -5.0216    0.0000 C   0  0  0  0  0  0  0  0  0  0  0  0
    0.7792   -5.5957    0.0000 C   0  0  0  0  0  0  0  0  0  0  0  0
    2.7391   -3.6358    0.0000 C   0  0  0  0  0  0  0  0  0  0  0  0
   -0.9822   -6.4738    0.0000 H   0  0  0  0  0  0  0  0  0  0  0  0
   -2.0588   -5.3972    0.0000 H   0  0  0  0  0  0  0  0  0  0  0  0
   -2.4731   -4.3971    0.0000 H   0  0  0  0  0  0  0  0  0  0  0  0
   -2.0831   -3.2434    0.0000 H   0  0  0  0  0  0  0  0  0  0  0  0
   -1.2853   -2.7421    0.0000 H   0  0  0  0  0  0  0  0  0  0  0  0
    1.8302   -4.1491    0.0000 H   0  0  0  0  0  0  0  0  0  0  0  0
   -0.0982   -4.1491    0.0000 H   0  0  0  0  0  0  0  0  0  0  0  0
    2.6781    0.6595    0.0000 H   0  0  0  0  0  0  0  0  0  0  0  0
    3.6423   -1.0105    0.0000 H   0  0  0  0  0  0  0  0  0  0  0  0
    0.4526   -1.4419    0.0000 H   0  0  0  0  0  0  0  0  0  0  0  0
   -0.0448    2.1989    0.0000 H   0  0  0  0  0  0  0  0  0  0  0  0
   -3.4330    0.7500    0.0000 H   0  0  0  0  0  0  0  0  0  0  0  0
   -1.9330    2.2500    0.0000 H   0  0  0  0  0  0  0  0  0  0  0  0
   -2.2960   -2.2054    0.0000 H   0  0  0  0  0  0  0  0  0  0  0  0
   -3.4330   -0.7500    0.0000 H   0  0  0  0  0  0  0  0  0  0  0  0
    5.0381   -1.8718    0.0000 H   0  0  0  0  0  0  0  0  0  0  0  0
    5.1140   -4.6334    0.0000 H   0  0  0  0  0  0  0  0  0  0  0  0
    4.5852   -6.7162    0.0000 H   0  0  0  0  0  0  0  0  0  0  0  0
    2.5216   -7.4067    0.0000 H   0  0  0  0  0  0  0  0  0  0  0  0
    1.5405   -6.8881    0.0000 H   0  0  0  0  0  0  0  0  0  0  0  0
    0.0180   -6.8881    0.0000 H   0  0  0  0  0  0  0  0  0  0  0  0
    1.6976   -3.0101    0.0000 H   0  0  0  0  0  0  0  0  0  0  0  0
  1  2  1  0
  2  3  1  0
  3  4  1  0
  4  5  1  0
  5  6  1  0
  6  7  1  0
  7  8  1  0
  8  9  1  0
  9 10  1  0
 10 11  1  0
  5 12  1  0
 12 13  1  0
 13 14  1  0
 14 15  1  0
 15 16  1  0
 15 17  1  0
 16  1  1  0
 11  3  1  0
 17 12  1  0
 17  5  1  0
 11  7  1  0
 15 13  1  0
 11  8  1  0
  1 18  1  0
  1 19  1  0
  2 20  1  0
  2 21  1  0
  3 22  1  0
  4 23  1  0
  4 24  1  0
  6 25  1  0
  6 26  1  0
  7 27  1  0
  8 28  1  0
  9 29  1  0
  9 30  1  0
 10 31  1  0
 10 32  1  0
 12 33  1  0
 13 34  1  0
 14 35  1  0
 14 36  1  0
 16 37  1  0
 16 38  1  0
 17 39  1  0
M  END
$$$$
