
     RDKit          2D

 60 64  0  0  0  0  0  0  0  0999 V2000
    5.3033   -6.3640    0.0000 C   0  0  0  0  0  0  0  0  0  0  0  0
    4.2426   -5.3033    0.0000 C   0  0  0  0  0  0  0  0  0  0  0  0
    3.1820   -4.2426    0.0000 C   0  0  0  0  0  0  0  0  0  0  0  0
    2.1213   -3.1820    0.0000 C   0  0  0  0  0  0  0  0  0  0  0  0
    1.0607   -2.1213    0.0000 C   0  0  0  0  0  0  0  0  0  0  0  0
   -0.0000   -1.0607    0.0000 C   0  0  0  0  0  0  0  0  0  0  0  0
    1.0607    0.0000    0.0000 C   0  0  0  0  0  0  0  0  0  0  0  0
    0.0000    1.0607    0.0000 C   0  0  0  0  0  0  0  0  0  0  0  0
   -1.0607    2.1213    0.0000 C   0  0  0  0  0  0  0  0  0  0  0  0
   -2.1213    3.1820    0.0000 C   0  0  0  0  0  0  0  0  0  0  0  0
   -1.2610    4.4107    0.0000 C   0  0  0  0  0  0  0  0  0  0  0  0
   -1.8949    5.7702    0.0000 N   0  0  0  0  0  0  0  0  0  0  0  0
   -2.7552    4.5414    0.0000 C   0  0  0  0  0  0  0  0  0  0  0  0
   -4.2495    4.6722    0.0000 C   0  0  0  0  0  0  0  0  0  0  0  0
   -5.7438    4.8029    0.0000 C   0  0  0  0  0  0  0  0  0  0  0  0
   -7.2381    4.9336    0.0000 C   0  0  0  0  0  0  0  0  0  0  0  0
   -8.7324    5.0644    0.0000 C   0  0  0  0  0  0  0  0  0  0  0  0
   -7.1074    6.4279    0.0000 C   0  0  0  0  0  0  0  0  0  0  0  0
   -1.0607    0.0000    0.0000 C   0  0  0  0  0  0  0  0  0  0  0  0
    2.1213   -5.3033    0.0000 C   0  0  0  0  0  0  0  0  0  0  0  0
    2.9817   -6.5320    0.0000 C   0  0  0  0  0  0  0  0  0  0  0  0
    2.3478   -7.8915    0.0000 C   0  0  0  0  0  0  0  0  0  0  0  0
    1.4874   -6.6628    0.0000 C   0  0  0  0  0  0  0  0  0  0  0  0
    6.3640   -7.4246    0.0000 H   0  0  0  0  0  0  0  0  0  0  0  0
    4.2426   -7.4246    0.0000 H   0  0  0  0  0  0  0  0  0  0  0  0
    6.3640   -5.3033    0.0000 H   0  0  0  0  0  0  0  0  0  0  0  0
    3.7358   -6.1469    0.0000 H   0  0  0  0  0  0  0  0  0  0  0  0
    5.3033   -4.2426    0.0000 H   0  0  0  0  0  0  0  0  0  0  0  0
    4.2426   -3.1820    0.0000 H   0  0  0  0  0  0  0  0  0  0  0  0
    3.1820   -2.1213    0.0000 H   0  0  0  0  0  0  0  0  0  0  0  0
    0.9393   -4.1054    0.0000 H   0  0  0  0  0  0  0  0  0  0  0  0
    1.7586   -1.5760    0.0000 H   0  0  0  0  0  0  0  0  0  0  0  0
    0.0000   -3.1820    0.0000 H   0  0  0  0  0  0  0  0  0  0  0  0
   -1.0607   -2.1213    0.0000 H   0  0  0  0  0  0  0  0  0  0  0  0
    2.1213    1.0607    0.0000 H   0  0  0  0  0  0  0  0  0  0  0  0
    1.7586   -0.5453    0.0000 H   0  0  0  0  0  0  0  0  0  0  0  0
    1.0607    2.1213    0.0000 H   0  0  0  0  0  0  0  0  0  0  0  0
   -0.0000    3.1820    0.0000 H   0  0  0  0  0  0  0  0  0  0  0  0
   -2.2427    1.1979    0.0000 H   0  0  0  0  0  0  0  0  0  0  0  0
   -3.3500    2.3216    0.0000 H   0  0  0  0  0  0  0  0  0  0  0  0
    0.2333    4.2800    0.0000 H   0  0  0  0  0  0  0  0  0  0  0  0
   -1.7641    7.2645    0.0000 H   0  0  0  0  0  0  0  0  0  0  0  0
   -4.1188    6.1665    0.0000 H   0  0  0  0  0  0  0  0  0  0  0  0
   -4.3803    3.1779    0.0000 H   0  0  0  0  0  0  0  0  0  0  0  0
   -5.8746    3.3086    0.0000 H   0  0  0  0  0  0  0  0  0  0  0  0
   -5.4631    6.1234    0.0000 H   0  0  0  0  0  0  0  0  0  0  0  0
   -7.3689    3.4394    0.0000 H   0  0  0  0  0  0  0  0  0  0  0  0
  -10.2267    5.1951    0.0000 H   0  0  0  0  0  0  0  0  0  0  0  0
   -8.8631    3.5701    0.0000 H   0  0  0  0  0  0  0  0  0  0  0  0
   -8.7634    5.9496    0.0000 H   0  0  0  0  0  0  0  0  0  0  0  0
   -6.9767    7.9222    0.0000 H   0  0  0  0  0  0  0  0  0  0  0  0
   -7.9738    6.6121    0.0000 H   0  0  0  0  0  0  0  0  0  0  0  0
   -5.7582    6.4751    0.0000 H   0  0  0  0  0  0  0  0  0  0  0  0
   -2.1213   -1.0607    0.0000 H   0  0  0  0  0  0  0  0  0  0  0  0
   -2.2427    0.9235    0.0000 H   0  0  0  0  0  0  0  0  0  0  0  0
    0.7969   -4.5991    0.0000 H   0  0  0  0  0  0  0  0  0  0  0  0
    4.4760   -6.4013    0.0000 H   0  0  0  0  0  0  0  0  0  0  0  0
    3.5765   -8.7519    0.0000 H   0  0  0  0  0  0  0  0  0  0  0  0
    1.2871   -8.9522    0.0000 H   0  0  0  0  0  0  0  0  0  0  0  0
   -0.0069   -6.7935    0.0000 H   0  0  0  0  0  0  0  0  0  0  0  0
  1  2  1  0
  2  3  1  0
  3  4  1  0
  4  5  1  0
  5  6  1  0
  6  7  1  0
  7  8  1  0
  8  9  1  0
  9 10  1  0
 10 11  1  0
 11 12  1  0
 12 13  1  0
 13 14  1  0
 14 15  1  0
 15 16  1  0
 16 17  1  0
 16 18  1  0
  8 19  1  0
  3 20  1  0
 20 21  1  0
 21 22  1  0
 22 23  1  0
 19  6  1  0
 23 20  1  0
 13 10  1  0
 23 21  1  0
 13 11  1  0
  1 24  1  0
  1 25  1  0
  1 26  1  0
  2 27  1  0
  2 28  1  0
  3 29  1  0
  4 30  1  0
  4 31  1  0
  5 32  1  0
  5 33  1  0
  6 34  1  0
  7 35  1  0
  7 36  1  0
  8 37  1  0
  9 38  1  0
  9 39  1  0
 10 40  1  0
 11 41  1  0
 12 42  1  0
 14 43  1  0
 14 44  1  0
 15 45  1  0
 15 46  1  0
 16 47  1  0
 17 48  1  0
 17 49  1  0
 17 50  1  0
 18 51  1  0
 18 52  1  0
 18 53  1  0
 19 54  1  0
 19 55  1  0
 20 56  1  0
 21 57  1  0
 22 58  1  0
 22 59  1  0
 23 60  1  0
M  END
$$$$
