
     RDKit          2D

103110  0  0  0  0  0  0  0  0999 V2000
    4.9904    6.4004    0.0000 C   0  0  0  0  0  0  0  0  0  0  0  0
    3.5809    6.9135    0.0000 C   0  0  0  0  0  0  0  0  0  0  0  0
    2.1714    7.4265    0.0000 O   0  0  0  0  0  0  0  0  0  0  0  0
    1.0223    6.4623    0.0000 C   0  0  0  0  0  0  0  0  0  0  0  0
   -0.1268    5.4981    0.0000 N   0  0  0  0  0  0  0  0  0  0  0  0
   -0.2575    4.0038    0.0000 C   0  0  0  0  0  0  0  0  0  0  0  0
   -0.3882    2.5095    0.0000 C   0  0  0  0  0  0  0  0  0  0  0  0
   -1.8371    2.8978    0.0000 C   0  0  0  0  0  0  0  0  0  0  0  0
   -2.8978    1.8371    0.0000 C   0  0  0  0  0  0  0  0  0  0  0  0
   -4.2572    1.2032    0.0000 C   0  0  0  0  0  0  0  0  0  0  0  0
   -5.6167    0.5693    0.0000 C   0  0  0  0  0  0  0  0  0  0  0  0
   -2.5095    0.3882    0.0000 C   0  0  0  0  0  0  0  0  0  0  0  0
   -2.8214   -1.0790    0.0000 C   0  0  0  0  0  0  0  0  0  0  0  0
   -1.5224   -1.8290    0.0000 C   0  0  0  0  0  0  0  0  0  0  0  0
   -2.4041   -3.0425    0.0000 C   0  0  0  0  0  0  0  0  0  0  0  0
   -0.0000   -1.0607    0.0000 C   0  0  0  0  0  0  0  0  0  0  0  0
    1.0607    0.0000    0.0000 C   0  0  0  0  0  0  0  0  0  0  0  0
    0.0000    1.0607    0.0000 C   0  0  0  0  0  0  0  0  0  0  0  0
   -1.0607    0.0000    0.0000 C   0  0  0  0  0  0  0  0  0  0  0  0
   -1.0909    6.6472    0.0000 C   0  0  0  0  0  0  0  0  0  0  0  0
   -2.2400    5.6830    0.0000 C   0  0  0  0  0  0  0  0  0  0  0  0
   -3.3891    4.7188    0.0000 C   0  0  0  0  0  0  0  0  0  0  0  0
   -4.5381    3.7547    0.0000 C   0  0  0  0  0  0  0  0  0  0  0  0
   -4.3533    5.8679    0.0000 O   0  0  0  0  0  0  0  0  0  0  0  0
   -5.8305    5.6074    0.0000 C   0  0  0  0  0  0  0  0  0  0  0  0
   -3.2042    6.8321    0.0000 C   0  0  0  0  0  0  0  0  0  0  0  0
   -4.3533    5.8679    0.0000 N   0  0  0  0  0  0  0  0  0  0  0  0
   -5.3174    7.0170    0.0000 C   0  0  0  0  0  0  0  0  0  0  0  0
   -6.6769    6.3830    0.0000 C   0  0  0  0  0  0  0  0  0  0  0  0
   -5.5779    8.4942    0.0000 C   0  0  0  0  0  0  0  0  0  0  0  0
   -6.9875    9.0072    0.0000 I   0  0  0  0  0  0  0  0  0  0  0  0
   -4.4288    9.4584    0.0000 O   0  0  0  0  0  0  0  0  0  0  0  0
   -4.1684    7.9812    0.0000 C   0  0  0  0  0  0  0  0  0  0  0  0
   -2.0551    7.7963    0.0000 C   0  0  0  0  0  0  0  0  0  0  0  0
   -3.0193    8.9453    0.0000 C   0  0  0  0  0  0  0  0  0  0  0  0
   -0.9061    8.7604    0.0000 C   0  0  0  0  0  0  0  0  0  0  0  0
    0.2430    7.7963    0.0000 C   0  0  0  0  0  0  0  0  0  0  0  0
   -0.1561   10.0595    0.0000 C   0  0  0  0  0  0  0  0  0  0  0  0
   -1.6561   10.0595    0.0000 C   0  0  0  0  0  0  0  0  0  0  0  0
   -1.9165   11.5367    0.0000 O   0  0  0  0  0  0  0  0  0  0  0  0
   -3.3261   12.0497    0.0000 C   0  0  0  0  0  0  0  0  0  0  0  0
    0.0581    7.6114    0.0000 C   0  0  0  0  0  0  0  0  0  0  0  0
    1.2072    8.5756    0.0000 O   0  0  0  0  0  0  0  0  0  0  0  0
   -0.9061    8.7604    0.0000 N   0  0  0  0  0  0  0  0  0  0  0  0
   -0.3930   10.1700    0.0000 O   0  0  0  0  0  0  0  0  0  0  0  0
    6.4000    5.8874    0.0000 H   0  0  0  0  0  0  0  0  0  0  0  0
    4.4774    4.9909    0.0000 H   0  0  0  0  0  0  0  0  0  0  0  0
    5.5035    7.8100    0.0000 H   0  0  0  0  0  0  0  0  0  0  0  0
    3.0679    5.5039    0.0000 H   0  0  0  0  0  0  0  0  0  0  0  0
    4.0939    8.3230    0.0000 H   0  0  0  0  0  0  0  0  0  0  0  0
    1.9865    5.3132    0.0000 H   0  0  0  0  0  0  0  0  0  0  0  0
    1.2368    3.8731    0.0000 H   0  0  0  0  0  0  0  0  0  0  0  0
   -1.7566    3.9515    0.0000 H   0  0  0  0  0  0  0  0  0  0  0  0
    1.0790    2.8215    0.0000 H   0  0  0  0  0  0  0  0  0  0  0  0
   -3.1616    3.6019    0.0000 H   0  0  0  0  0  0  0  0  0  0  0  0
   -1.2032    4.2572    0.0000 H   0  0  0  0  0  0  0  0  0  0  0  0
   -3.9015    2.9518    0.0000 H   0  0  0  0  0  0  0  0  0  0  0  0
   -5.0522    2.4752    0.0000 H   0  0  0  0  0  0  0  0  0  0  0  0
   -3.9711   -0.2693    0.0000 H   0  0  0  0  0  0  0  0  0  0  0  0
   -6.9762   -0.0647    0.0000 H   0  0  0  0  0  0  0  0  0  0  0  0
   -6.2506    1.9287    0.0000 H   0  0  0  0  0  0  0  0  0  0  0  0
   -5.1532   -0.8573    0.0000 H   0  0  0  0  0  0  0  0  0  0  0  0
   -3.5702   -0.6724    0.0000 H   0  0  0  0  0  0  0  0  0  0  0  0
   -4.3194   -1.1576    0.0000 H   0  0  0  0  0  0  0  0  0  0  0  0
   -3.5940   -2.3647    0.0000 H   0  0  0  0  0  0  0  0  0  0  0  0
   -0.5383   -2.9611    0.0000 H   0  0  0  0  0  0  0  0  0  0  0  0
   -3.2857   -4.2560    0.0000 H   0  0  0  0  0  0  0  0  0  0  0  0
   -1.1905   -3.9242    0.0000 H   0  0  0  0  0  0  0  0  0  0  0  0
   -3.7160   -2.3153    0.0000 H   0  0  0  0  0  0  0  0  0  0  0  0
    0.1828   -2.5495    0.0000 H   0  0  0  0  0  0  0  0  0  0  0  0
    2.1213    1.0607    0.0000 H   0  0  0  0  0  0  0  0  0  0  0  0
    2.1213   -1.0607    0.0000 H   0  0  0  0  0  0  0  0  0  0  0  0
    1.3808    1.6467    0.0000 H   0  0  0  0  0  0  0  0  0  0  0  0
   -2.1027   -1.0790    0.0000 H   0  0  0  0  0  0  0  0  0  0  0  0
   -1.2758    4.5340    0.0000 H   0  0  0  0  0  0  0  0  0  0  0  0
   -2.7316    3.3706    0.0000 H   0  0  0  0  0  0  0  0  0  0  0  0
   -5.7962    2.9377    0.0000 H   0  0  0  0  0  0  0  0  0  0  0  0
   -5.9290    4.3164    0.0000 H   0  0  0  0  0  0  0  0  0  0  0  0
   -3.7212    2.4966    0.0000 H   0  0  0  0  0  0  0  0  0  0  0  0
   -7.2649    5.1688    0.0000 H   0  0  0  0  0  0  0  0  0  0  0  0
   -6.4406    6.9777    0.0000 H   0  0  0  0  0  0  0  0  0  0  0  0
   -5.7520    4.1095    0.0000 H   0  0  0  0  0  0  0  0  0  0  0  0
   -4.3533    5.8679    0.0000 H   0  0  0  0  0  0  0  0  0  0  0  0
   -4.8417    4.4497    0.0000 H   0  0  0  0  0  0  0  0  0  0  0  0
   -8.1035    5.9196    0.0000 H   0  0  0  0  0  0  0  0  0  0  0  0
   -7.3108    7.7425    0.0000 H   0  0  0  0  0  0  0  0  0  0  0  0
   -6.5724    4.8867    0.0000 H   0  0  0  0  0  0  0  0  0  0  0  0
   -3.4034    7.1388    0.0000 H   0  0  0  0  0  0  0  0  0  0  0  0
   -3.8362   10.2034    0.0000 H   0  0  0  0  0  0  0  0  0  0  0  0
   -2.1377   10.1589    0.0000 H   0  0  0  0  0  0  0  0  0  0  0  0
   -4.3675    8.2878    0.0000 H   0  0  0  0  0  0  0  0  0  0  0  0
    1.5912    7.1388    0.0000 H   0  0  0  0  0  0  0  0  0  0  0  0
    1.5550    8.5234    0.0000 H   0  0  0  0  0  0  0  0  0  0  0  0
   -0.4145    6.4480    0.0000 H   0  0  0  0  0  0  0  0  0  0  0  0
    1.3357    9.9028    0.0000 H   0  0  0  0  0  0  0  0  0  0  0  0
    0.1044   11.5367    0.0000 H   0  0  0  0  0  0  0  0  0  0  0  0
   -3.1478    9.9028    0.0000 H   0  0  0  0  0  0  0  0  0  0  0  0
   -4.7356   12.5628    0.0000 H   0  0  0  0  0  0  0  0  0  0  0  0
   -2.8130   13.4593    0.0000 H   0  0  0  0  0  0  0  0  0  0  0  0
   -4.0071   10.7132    0.0000 H   0  0  0  0  0  0  0  0  0  0  0  0
    1.1287   10.0735    0.0000 H   0  0  0  0  0  0  0  0  0  0  0  0
   -2.3326    9.2241    0.0000 H   0  0  0  0  0  0  0  0  0  0  0  0
   -1.0505   11.5182    0.0000 H   0  0  0  0  0  0  0  0  0  0  0  0
  1  2  1  0
  2  3  1  0
  3  4  1  0
  4  5  1  0
  5  6  1  0
  6  7  1  0
  7  8  1  0
  8  9  1  0
  9 10  1  0
 10 11  1  0
  9 12  1  0
 12 13  1  0
 13 14  1  0
 14 15  1  0
 14 16  1  0
 16 17  1  0
 17 18  1  0
 18 19  1  0
  5 20  1  0
 20 21  1  0
 21 22  1  0
 22 23  1  0
 22 24  1  0
 24 25  1  0
 21 26  1  0
 26 27  1  0
 27 28  1  0
 28 29  1  0
 28 30  1  0
 30 31  1  0
 30 32  1  0
 32 33  1  0
 20 34  1  0
 34 35  1  0
 34 36  1  0
 36 37  1  0
 36 38  1  0
 38 39  1  0
 39 40  1  0
 40 41  1  0
 20 42  1  0
 42 43  1  0
 42 44  1  0
 44 45  1  0
 42  4  1  0
 18  7  1  0
 33 26  1  0
 39 36  1  0
 19 12  1  0
 33 28  1  0
 19 16  1  0
 33 30  1  0
  1 46  1  0
  1 47  1  0
  1 48  1  0
  2 49  1  0
  2 50  1  0
  4 51  1  0
  6 52  1  0
  6 53  1  0
  7 54  1  0
  8 55  1  0
  8 56  1  0
  9 57  1  0
 10 58  1  0
 10 59  1  0
 11 60  1  0
 11 61  1  0
 11 62  1  0
 12 63  1  0
 13 64  1  0
 13 65  1  0
 14 66  1  0
 15 67  1  0
 15 68  1  0
 15 69  1  0
 16 70  1  0
 17 71  1  0
 17 72  1  0
 18 73  1  0
 19 74  1  0
 21 75  1  0
 22 76  1  0
 23 77  1  0
 23 78  1  0
 23 79  1  0
 25 80  1  0
 25 81  1  0
 25 82  1  0
 26 83  1  0
 27 84  1  0
 29 85  1  0
 29 86  1  0
 29 87  1  0
 34 88  1  0
 35 89  1  0
 35 90  1  0
 35 91  1  0
 37 92  1  0
 37 93  1  0
 37 94  1  0
 38 95  1  0
 38 96  1  0
 39 97  1  0
 41 98  1  0
 41 99  1  0
 41100  1  0
 43101  1  0
 44102  1  0
 45103  1  0
M  END
$$$$
