
     RDKit          2D

 43 44  0  0  0  0  0  0  0  0999 V2000
    3.5054    2.0074    0.0000 C   0  0  0  0  0  0  0  0  0  0  0  0
    2.3907    1.0037    0.0000 C   0  0  0  0  0  0  0  0  0  0  0  0
    1.2760    0.0000    0.0000 C   0  0  0  0  0  0  0  0  0  0  0  0
    0.3943    1.2135    0.0000 C   0  0  0  0  0  0  0  0  0  0  0  0
   -1.0323    0.7500    0.0000 C   0  0  0  0  0  0  0  0  0  0  0  0
   -2.5241    0.5932    0.0000 C   0  0  0  0  0  0  0  0  0  0  0  0
   -4.0159    0.4364    0.0000 C   0  0  0  0  0  0  0  0  0  0  0  0
   -3.8591   -1.0554    0.0000 O   0  0  0  0  0  0  0  0  0  0  0  0
   -5.5076    0.2796    0.0000 C   0  0  0  0  0  0  0  0  0  0  0  0
   -6.9994    0.1228    0.0000 C   0  0  0  0  0  0  0  0  0  0  0  0
   -6.9994    1.6228    0.0000 C   0  0  0  0  0  0  0  0  0  0  0  0
   -8.4912    0.2796    0.0000 C   0  0  0  0  0  0  0  0  0  0  0  0
   -9.1013   -1.0907    0.0000 C   0  0  0  0  0  0  0  0  0  0  0  0
   -7.9866   -2.0944    0.0000 C   0  0  0  0  0  0  0  0  0  0  0  0
   -6.6876   -1.3444    0.0000 C   0  0  0  0  0  0  0  0  0  0  0  0
   -1.0323   -0.7500    0.0000 O   0  0  0  0  0  0  0  0  0  0  0  0
    0.3943   -1.2135    0.0000 O   0  0  0  0  0  0  0  0  0  0  0  0
    4.6201    3.0111    0.0000 H   0  0  0  0  0  0  0  0  0  0  0  0
    2.5017    3.1221    0.0000 H   0  0  0  0  0  0  0  0  0  0  0  0
    4.5091    0.8927    0.0000 H   0  0  0  0  0  0  0  0  0  0  0  0
    3.3944   -0.1110    0.0000 H   0  0  0  0  0  0  0  0  0  0  0  0
    1.9335    1.6567    0.0000 H   0  0  0  0  0  0  0  0  0  0  0  0
    2.3907   -1.0037    0.0000 H   0  0  0  0  0  0  0  0  0  0  0  0
   -0.2158    2.5838    0.0000 H   0  0  0  0  0  0  0  0  0  0  0  0
    1.0309    1.6933    0.0000 H   0  0  0  0  0  0  0  0  0  0  0  0
   -1.3442    2.2172    0.0000 H   0  0  0  0  0  0  0  0  0  0  0  0
   -2.6809    2.0850    0.0000 H   0  0  0  0  0  0  0  0  0  0  0  0
   -2.3673   -0.8986    0.0000 H   0  0  0  0  0  0  0  0  0  0  0  0
   -4.1726    1.9282    0.0000 H   0  0  0  0  0  0  0  0  0  0  0  0
   -4.9561   -2.0784    0.0000 H   0  0  0  0  0  0  0  0  0  0  0  0
   -5.4814    1.7794    0.0000 H   0  0  0  0  0  0  0  0  0  0  0  0
   -5.3508   -1.2122    0.0000 H   0  0  0  0  0  0  0  0  0  0  0  0
   -6.9994    3.1228    0.0000 H   0  0  0  0  0  0  0  0  0  0  0  0
   -8.4882    1.8057    0.0000 H   0  0  0  0  0  0  0  0  0  0  0  0
   -5.5106    1.8057    0.0000 H   0  0  0  0  0  0  0  0  0  0  0  0
   -8.3605    1.7739    0.0000 H   0  0  0  0  0  0  0  0  0  0  0  0
   -9.9178    0.7431    0.0000 H   0  0  0  0  0  0  0  0  0  0  0  0
  -10.4003   -0.3407    0.0000 H   0  0  0  0  0  0  0  0  0  0  0  0
   -9.9830   -2.3042    0.0000 H   0  0  0  0  0  0  0  0  0  0  0  0
   -9.1013   -3.0981    0.0000 H   0  0  0  0  0  0  0  0  0  0  0  0
   -7.1049   -3.3079    0.0000 H   0  0  0  0  0  0  0  0  0  0  0  0
   -6.0774   -2.7147    0.0000 H   0  0  0  0  0  0  0  0  0  0  0  0
   -5.2151   -1.0582    0.0000 H   0  0  0  0  0  0  0  0  0  0  0  0
  1  2  1  0
  2  3  1  0
  3  4  1  0
  4  5  1  0
  5  6  1  0
  6  7  1  0
  7  8  1  0
  7  9  1  0
  9 10  1  0
 10 11  1  0
 10 12  1  0
 12 13  1  0
 13 14  1  0
 14 15  1  0
  5 16  1  0
 16 17  1  0
 17  3  1  0
 15 10  1  0
  1 18  1  0
  1 19  1  0
  1 20  1  0
  2 21  1  0
  2 22  1  0
  3 23  1  0
  4 24  1  0
  4 25  1  0
  5 26  1  0
  6 27  1  0
  6 28  1  0
  7 29  1  0
  8 30  1  0
  9 31  1  0
  9 32  1  0
 11 33  1  0
 11 34  1  0
 11 35  1  0
 12 36  1  0
 12 37  1  0
 13 38  1  0
 13 39  1  0
 14 40  1  0
 14 41  1  0
 15 42  1  0
 15 43  1  0
M  END
$$$$
