
     RDKit          2D

 29 29  0  0  0  0  0  0  0  0999 V2000
    4.5357    0.3391    0.0000 C   0  0  0  0  0  0  0  0  0  0  0  0
    3.1499    0.9131    0.0000 O   0  0  0  0  0  0  0  0  0  0  0  0
    1.9598    0.0000    0.0000 C   0  0  0  0  0  0  0  0  0  0  0  0
    1.3858   -1.3858    0.0000 C   0  0  0  0  0  0  0  0  0  0  0  0
   -0.0000   -1.9598    0.0000 C   0  0  0  0  0  0  0  0  0  0  0  0
    0.9131   -3.1499    0.0000 C   0  0  0  0  0  0  0  0  0  0  0  0
   -1.3858   -1.3858    0.0000 C   0  0  0  0  0  0  0  0  0  0  0  0
   -1.9598    0.0000    0.0000 C   0  0  0  0  0  0  0  0  0  0  0  0
   -1.3858    1.3858    0.0000 C   0  0  0  0  0  0  0  0  0  0  0  0
    0.0000    1.9598    0.0000 C   0  0  0  0  0  0  0  0  0  0  0  0
    1.3858    1.3858    0.0000 O   0  0  0  0  0  0  0  0  0  0  0  0
    5.9215   -0.2349    0.0000 H   0  0  0  0  0  0  0  0  0  0  0  0
    5.1097    1.7249    0.0000 H   0  0  0  0  0  0  0  0  0  0  0  0
    4.1349   -1.1063    0.0000 H   0  0  0  0  0  0  0  0  0  0  0  0
    3.0309   -0.8218    0.0000 H   0  0  0  0  0  0  0  0  0  0  0  0
    2.3386   -1.6323    0.0000 H   0  0  0  0  0  0  0  0  0  0  0  0
    1.7662   -2.0863    0.0000 H   0  0  0  0  0  0  0  0  0  0  0  0
   -0.7613   -3.2523    0.0000 H   0  0  0  0  0  0  0  0  0  0  0  0
    1.8263   -4.3399    0.0000 H   0  0  0  0  0  0  0  0  0  0  0  0
   -0.2769   -4.0630    0.0000 H   0  0  0  0  0  0  0  0  0  0  0  0
    1.6763   -2.7004    0.0000 H   0  0  0  0  0  0  0  0  0  0  0  0
   -1.7614   -2.8380    0.0000 H   0  0  0  0  0  0  0  0  0  0  0  0
   -2.8380   -1.7614    0.0000 H   0  0  0  0  0  0  0  0  0  0  0  0
   -3.2523   -0.7613    0.0000 H   0  0  0  0  0  0  0  0  0  0  0  0
   -3.2523    0.7613    0.0000 H   0  0  0  0  0  0  0  0  0  0  0  0
   -2.8380    1.7614    0.0000 H   0  0  0  0  0  0  0  0  0  0  0  0
   -1.7614    2.8380    0.0000 H   0  0  0  0  0  0  0  0  0  0  0  0
   -0.7613    3.2523    0.0000 H   0  0  0  0  0  0  0  0  0  0  0  0
    0.9131    3.1499    0.0000 H   0  0  0  0  0  0  0  0  0  0  0  0
  1  2  1  0
  2  3  1  0
  3  4  1  0
  4  5  1  0
  5  6  1  0
  5  7  1  0
  7  8  1  0
  8  9  1  0
  9 10  1  0
 10 11  1  0
 11  3  1  0
  1 12  1  0
  1 13  1  0
  1 14  1  0
  3 15  1  0
  4 16  1  0
  4 17  1  0
  5 18  1  0
  6 19  1  0
  6 20  1  0
  6 21  1  0
  7 22  1  0
  7 23  1  0
  8 24  1  0
  8 25  1  0
  9 26  1  0
  9 27  1  0
 10 28  1  0
 10 29  1  0
M  END
$$$$
