
     RDKit          2D

 40 47  0  0  0  0  0  0  0  0999 V2000
   -6.4106    0.9997    0.0000 C   0  0  0  0  0  0  0  0  0  0  0  0
   -6.1796   -0.4824    0.0000 C   0  0  0  0  0  0  0  0  0  0  0  0
   -6.3397   -1.9080    0.0000 N   0  0  0  0  0  0  0  0  0  0  0  0
   -5.7795   -3.0495    0.0000 C   0  0  0  0  0  0  0  0  0  0  0  0
   -6.7206   -1.8815    0.0000 C   0  0  0  0  0  0  0  0  0  0  0  0
   -5.2385   -1.6505    0.0000 C   0  0  0  0  0  0  0  0  0  0  0  0
   -3.7564   -1.4195    0.0000 C   0  0  0  0  0  0  0  0  0  0  0  0
   -4.2413    0.0000    0.0000 C   0  0  0  0  0  0  0  0  0  0  0  0
   -3.3596   -1.2135    0.0000 C   0  0  0  0  0  0  0  0  0  0  0  0
   -1.9330   -0.7500    0.0000 C   0  0  0  0  0  0  0  0  0  0  0  0
   -1.9330    0.7500    0.0000 C   0  0  0  0  0  0  0  0  0  0  0  0
   -3.3596    1.2135    0.0000 O   0  0  0  0  0  0  0  0  0  0  0  0
   -0.4330    0.7500    0.0000 C   0  0  0  0  0  0  0  0  0  0  0  0
    0.8660    0.0000    0.0000 C   0  0  0  0  0  0  0  0  0  0  0  0
   -0.4330   -0.7500    0.0000 C   0  0  0  0  0  0  0  0  0  0  0  0
   -2.2847   -1.7093    0.0000 C   0  0  0  0  0  0  0  0  0  0  0  0
   -2.8257   -3.1084    0.0000 C   0  0  0  0  0  0  0  0  0  0  0  0
   -2.8556   -4.6081    0.0000 C   0  0  0  0  0  0  0  0  0  0  0  0
   -1.5419   -3.8841    0.0000 C   0  0  0  0  0  0  0  0  0  0  0  0
   -6.6416    2.4818    0.0000 H   0  0  0  0  0  0  0  0  0  0  0  0
   -7.8927    0.7687    0.0000 H   0  0  0  0  0  0  0  0  0  0  0  0
   -4.9285    1.2307    0.0000 H   0  0  0  0  0  0  0  0  0  0  0  0
   -8.4338   -2.5748    0.0000 H   0  0  0  0  0  0  0  0  0  0  0  0
   -5.5485   -4.5316    0.0000 H   0  0  0  0  0  0  0  0  0  0  0  0
   -8.2198   -1.9301    0.0000 H   0  0  0  0  0  0  0  0  0  0  0  0
   -3.9689   -2.9044    0.0000 H   0  0  0  0  0  0  0  0  0  0  0  0
   -5.6967    0.3630    0.0000 H   0  0  0  0  0  0  0  0  0  0  0  0
   -4.4386   -2.2556    0.0000 H   0  0  0  0  0  0  0  0  0  0  0  0
   -3.0992   -2.6908    0.0000 H   0  0  0  0  0  0  0  0  0  0  0  0
   -1.8807   -2.2491    0.0000 H   0  0  0  0  0  0  0  0  0  0  0  0
   -1.6984    2.2315    0.0000 H   0  0  0  0  0  0  0  0  0  0  0  0
   -0.0448    2.1989    0.0000 H   0  0  0  0  0  0  0  0  0  0  0  0
    1.8302    1.1491    0.0000 H   0  0  0  0  0  0  0  0  0  0  0  0
    1.8302   -1.1491    0.0000 H   0  0  0  0  0  0  0  0  0  0  0  0
   -1.0008   -2.4850    0.0000 H   0  0  0  0  0  0  0  0  0  0  0  0
   -4.3218   -3.0001    0.0000 H   0  0  0  0  0  0  0  0  0  0  0  0
   -4.3377   -4.8391    0.0000 H   0  0  0  0  0  0  0  0  0  0  0  0
   -2.3707   -6.0275    0.0000 H   0  0  0  0  0  0  0  0  0  0  0  0
   -0.6007   -5.0521    0.0000 H   0  0  0  0  0  0  0  0  0  0  0  0
   -0.4246   -2.8832    0.0000 H   0  0  0  0  0  0  0  0  0  0  0  0
  2  1  1  1
  2  3  1  0
  3  4  1  0
  4  5  1  0
  5  6  1  0
  6  7  1  0
  7  8  1  0
  8  9  1  0
  9 10  1  0
 10 11  1  0
 11 12  1  0
 11 13  1  0
 13 14  1  0
 15 14  1  1
 15 16  1  0
 16 17  1  0
 17 18  1  0
 18 19  1  0
  5  2  1  0
 16  7  1  0
 19 17  1  0
  6  2  1  6
 12  8  1  0
 15 13  1  0
  6  4  1  0
 15 10  1  0
  1 20  1  0
  1 21  1  0
  1 22  1  0
  3 23  1  0
  4 24  1  6
  5 25  1  1
  7 26  1  1
  8 27  1  1
  9 28  1  0
  9 29  1  0
 10 30  1  1
 11 31  1  1
 13 32  1  6
 14 33  1  0
 14 34  1  0
 16 35  1  1
 17 36  1  0
 18 37  1  0
 18 38  1  0
 19 39  1  0
 19 40  1  0
M  END
$$$$
