
     RDKit          2D

 34 37  0  0  0  0  0  0  0  0999 V2000
   -5.0441    2.4709    0.0000 C   0  0  0  0  0  0  0  0  0  0  0  0
   -5.3560    1.0037    0.0000 N   0  0  0  0  0  0  0  0  0  0  0  0
   -6.7826    0.5402    0.0000 C   0  0  0  0  0  0  0  0  0  0  0  0
   -8.2092    0.0766    0.0000 F   0  0  0  0  0  0  0  0  0  0  0  0
   -4.2413    0.0000    0.0000 C   0  0  0  0  0  0  0  0  0  0  0  0
   -3.3596    1.2135    0.0000 C   0  0  0  0  0  0  0  0  0  0  0  0
   -1.9330    0.7500    0.0000 C   0  0  0  0  0  0  0  0  0  0  0  0
   -1.6984    2.2315    0.0000 C   0  0  0  0  0  0  0  0  0  0  0  0
   -0.4330    0.7500    0.0000 C   0  0  0  0  0  0  0  0  0  0  0  0
    0.8660    0.0000    0.0000 N   0  0  0  0  0  0  0  0  0  0  0  0
    2.3660    0.0000    0.0000 Cl  0  0  0  0  0  0  0  0  0  0  0  0
   -0.4330   -0.7500    0.0000 C   0  0  0  0  0  0  0  0  0  0  0  0
   -0.6677   -2.2315    0.0000 C   0  0  0  0  0  0  0  0  0  0  0  0
    0.8303   -2.3100    0.0000 O   0  0  0  0  0  0  0  0  0  0  0  0
   -2.1492   -2.4662    0.0000 C   0  0  0  0  0  0  0  0  0  0  0  0
   -3.3596   -1.2135    0.0000 C   0  0  0  0  0  0  0  0  0  0  0  0
   -1.9330   -0.7500    0.0000 N   0  0  0  0  0  0  0  0  0  0  0  0
   -4.7323    3.9381    0.0000 H   0  0  0  0  0  0  0  0  0  0  0  0
   -6.5113    2.7828    0.0000 H   0  0  0  0  0  0  0  0  0  0  0  0
   -4.2500    2.4015    0.0000 H   0  0  0  0  0  0  0  0  0  0  0  0
   -7.2461    1.9668    0.0000 H   0  0  0  0  0  0  0  0  0  0  0  0
   -6.3191   -0.8864    0.0000 H   0  0  0  0  0  0  0  0  0  0  0  0
   -5.3560   -1.0037    0.0000 H   0  0  0  0  0  0  0  0  0  0  0  0
   -3.0399    2.2593    0.0000 H   0  0  0  0  0  0  0  0  0  0  0  0
   -3.9967    1.8288    0.0000 H   0  0  0  0  0  0  0  0  0  0  0  0
   -1.4637    3.7131    0.0000 H   0  0  0  0  0  0  0  0  0  0  0  0
   -0.1993    2.1792    0.0000 H   0  0  0  0  0  0  0  0  0  0  0  0
   -3.0791    2.8177    0.0000 H   0  0  0  0  0  0  0  0  0  0  0  0
    0.1289    2.1408    0.0000 H   0  0  0  0  0  0  0  0  0  0  0  0
   -0.5892   -3.7295    0.0000 H   0  0  0  0  0  0  0  0  0  0  0  0
    1.5113   -3.6465    0.0000 H   0  0  0  0  0  0  0  0  0  0  0  0
   -1.7610   -3.9151    0.0000 H   0  0  0  0  0  0  0  0  0  0  0  0
   -3.4736   -3.1704    0.0000 H   0  0  0  0  0  0  0  0  0  0  0  0
   -3.9936   -2.5730    0.0000 H   0  0  0  0  0  0  0  0  0  0  0  0
  1  2  1  0
  2  3  1  0
  3  4  1  0
  2  5  1  0
  5  6  1  0
  6  7  1  0
  7  8  1  0
  7  9  1  0
  9 10  1  0
 10 11  1  0
 10 12  1  0
 12 13  1  0
 13 14  1  0
 13 15  1  0
 15 16  1  0
 16 17  1  0
 16  5  1  0
 17  7  1  0
 12  9  1  0
 17 12  1  0
  1 18  1  0
  1 19  1  0
  1 20  1  0
  3 21  1  0
  3 22  1  0
  5 23  1  0
  6 24  1  0
  6 25  1  0
  8 26  1  0
  8 27  1  0
  8 28  1  0
  9 29  1  0
 13 30  1  0
 14 31  1  0
 15 32  1  0
 15 33  1  0
 16 34  1  0
M  END
$$$$
