
     RDKit          2D

 30 33  0  0  0  0  0  0  0  0999 V2000
   -0.4330    2.2500    0.0000 C   0  0  0  0  0  0  0  0  0  0  0  0
   -0.4330    0.7500    0.0000 C   0  0  0  0  0  0  0  0  0  0  0  0
    0.8660    0.0000    0.0000 C   0  0  0  0  0  0  0  0  0  0  0  0
   -0.4330   -0.7500    0.0000 C   0  0  0  0  0  0  0  0  0  0  0  0
   -1.7321    0.0000    0.0000 C   0  0  0  0  0  0  0  0  0  0  0  0
   -3.0311   -0.7500    0.0000 C   0  0  0  0  0  0  0  0  0  0  0  0
   -3.0311    0.7500    0.0000 C   0  0  0  0  0  0  0  0  0  0  0  0
   -2.1179    1.9400    0.0000 C   0  0  0  0  0  0  0  0  0  0  0  0
   -2.3137    3.4272    0.0000 N   0  0  0  0  0  0  0  0  0  0  0  0
   -1.1158    4.3300    0.0000 Cl  0  0  0  0  0  0  0  0  0  0  0  0
   -3.5038    4.3403    0.0000 C   0  0  0  0  0  0  0  0  0  0  0  0
   -4.9909    4.1446    0.0000 C   0  0  0  0  0  0  0  0  0  0  0  0
   -5.9041    2.9545    0.0000 N   0  0  0  0  0  0  0  0  0  0  0  0
   -5.7083    1.4674    0.0000 C   0  0  0  0  0  0  0  0  0  0  0  0
   -7.0073    0.7174    0.0000 O   0  0  0  0  0  0  0  0  0  0  0  0
   -4.5183    0.5542    0.0000 N   0  0  0  0  0  0  0  0  0  0  0  0
    1.0670    2.2500    0.0000 H   0  0  0  0  0  0  0  0  0  0  0  0
   -1.2065    2.4429    0.0000 H   0  0  0  0  0  0  0  0  0  0  0  0
   -0.2502    3.7388    0.0000 H   0  0  0  0  0  0  0  0  0  0  0  0
    1.8302    1.1491    0.0000 H   0  0  0  0  0  0  0  0  0  0  0  0
    1.8302   -1.1491    0.0000 H   0  0  0  0  0  0  0  0  0  0  0  0
   -0.4330   -2.2500    0.0000 H   0  0  0  0  0  0  0  0  0  0  0  0
   -2.5181   -2.1595    0.0000 H   0  0  0  0  0  0  0  0  0  0  0  0
   -4.4655   -1.1886    0.0000 H   0  0  0  0  0  0  0  0  0  0  0  0
   -1.4060    2.4669    0.0000 H   0  0  0  0  0  0  0  0  0  0  0  0
   -0.9440    1.0063    0.0000 H   0  0  0  0  0  0  0  0  0  0  0  0
   -4.0778    5.7262    0.0000 H   0  0  0  0  0  0  0  0  0  0  0  0
   -2.3137    5.2535    0.0000 H   0  0  0  0  0  0  0  0  0  0  0  0
   -5.7409    5.4436    0.0000 H   0  0  0  0  0  0  0  0  0  0  0  0
   -5.0802   -0.8365    0.0000 H   0  0  0  0  0  0  0  0  0  0  0  0
  2  1  1  6
  2  3  1  0
  3  4  1  0
  4  5  1  0
  5  6  1  6
  6  7  1  0
  7  8  1  0
  8  9  1  0
  9 10  1  0
  9 11  1  0
 11 12  1  0
 12 13  2  0
 13 14  1  0
 14 15  2  0
 14 16  1  0
  4  2  1  0
  7  5  1  0
  5  2  1  0
  7 16  1  1
  1 17  1  0
  1 18  1  0
  1 19  1  0
  3 20  1  0
  3 21  1  0
  4 22  1  1
  6 23  1  0
  6 24  1  0
  8 25  1  0
  8 26  1  0
 11 27  1  0
 11 28  1  0
 12 29  1  0
 16 30  1  0
M  END
$$$$
