
     RDKit          3D

 45 49  0  0  0  0  0  0  0  0999 V2000
   24.1120  -19.3502   -7.3683 C   0  0  0  0  0  0  0  0  0  0  0  0
   21.9084  -21.3353   -7.8953 C   0  0  0  0  0  0  0  0  0  0  0  0
   22.8513  -15.4709   -7.4342 C   0  0  0  0  0  0  0  0  0  0  0  0
   20.5911  -14.3432   -7.1273 C   0  0  0  0  0  0  0  0  0  0  0  0
   20.7862  -19.6482   -6.3632 C   0  0  0  0  0  0  0  0  0  0  0  0
   21.5203  -12.8478   -5.0784 C   0  0  0  0  0  0  0  0  0  0  0  0
   21.5109  -13.7614   -3.9686 N   0  0  0  0  0  0  0  0  0  0  0  0
   19.0216  -21.6568   -6.7545 C   0  0  0  0  0  0  0  0  0  0  0  0
   23.7568  -16.6435   -6.8446 C   0  0  0  0  0  0  0  0  0  0  0  0
   18.4584  -21.1851   -4.1365 C   0  0  0  0  0  0  0  0  0  0  0  0
   19.2746  -21.2725   -2.8270 C   0  0  0  0  0  0  0  0  0  0  0  0
   19.4351  -20.0081   -1.8553 C   0  0  0  0  0  0  0  0  0  0  0  0
   24.3058  -20.0991   -8.6392 N   0  0  0  0  0  0  0  0  0  0  0  0
   19.2951  -20.0657   -0.2515 C   0  0  0  0  0  0  0  0  0  0  0  0
   18.1329  -23.2871   -4.2149 C   0  0  0  0  0  0  0  0  0  0  0  0
   20.5426  -18.8908   -2.3122 C   0  0  0  0  0  0  0  0  0  0  0  0
   18.6018  -24.7739   -3.6918 C   0  0  0  0  0  0  0  0  0  0  0  0
   21.3174  -19.8676   -4.8378 C   0  0  0  0  0  0  0  0  0  0  0  0
   18.6030  -24.9955   -2.1464 C   0  0  0  0  0  0  0  0  0  0  0  0
   20.4016  -13.1382   -6.1520 C   0  0  0  0  0  0  0  0  0  0  0  0
   18.5910  -20.7893    0.9884 C   0  0  0  0  0  0  0  0  0  0  0  0
   20.3053  -20.6056    3.0235 C   0  0  0  0  0  0  0  0  0  0  0  0
   18.2152  -19.4405   -1.1247 C   0  0  0  0  0  0  0  0  0  0  0  0
   18.9041  -22.2534   -5.2082 C   0  0  0  0  0  0  0  0  0  0  0  0
   23.3688  -17.9667   -7.6578 C   0  0  0  0  0  0  0  0  0  0  0  0
   20.4759  -20.9396   -7.1950 C   0  0  0  0  0  0  0  0  0  0  0  0
   21.5458  -15.4165   -6.6429 C   0  0  0  0  0  0  0  0  0  0  0  0
   22.2839  -21.1317   -4.6256 C   0  0  0  0  0  0  0  0  0  0  0  0
   18.0806  -12.8576   -6.2060 O   0  0  0  0  0  0  0  0  0  0  0  0
   19.5640  -25.7574   -4.4779 C   0  0  0  0  0  0  0  0  0  0  0  0
   18.0500  -22.2507   -3.0693 C   0  0  0  0  0  0  0  0  0  0  0  0
   21.4428  -18.7942   -3.6692 C   0  0  0  0  0  0  0  0  0  0  0  0
   23.4858  -20.7228   -7.5082 C   0  0  0  0  0  0  0  0  0  0  0  0
   22.9068  -21.6487   -3.3132 C   0  0  0  0  0  0  0  0  0  0  0  0
   21.3981  -17.3356   -4.0704 C   0  0  0  0  0  0  0  0  0  0  0  0
   22.3697  -16.4940   -3.6073 C   0  0  0  0  0  0  0  0  0  0  0  0
   19.0753  -13.4483   -5.4304 C   0  0  0  0  0  0  0  0  0  0  0  0
   19.6508  -21.3746    1.9037 N   0  0  0  0  0  0  0  0  0  0  0  0
   17.5305  -19.5836    1.8966 S   0  0  0  0  0  0  0  0  0  0  0  0
   19.5084  -25.8239   -5.7983 C   0  0  0  0  0  0  0  0  0  0  0  0
   17.8620  -20.6281   -7.2477 C   0  0  0  0  0  0  0  0  0  0  0  0
   21.6490  -21.2747   -9.2953 O   0  0  0  0  0  0  0  0  0  0  0  0
   19.6229  -24.9404   -1.2644 C   0  0  0  0  0  0  0  0  0  0  0  0
   17.2217  -12.3487   -5.3483 O   0  0  0  0  0  0  0  0  0  0  0  0
   20.4525  -26.8863   -3.7947 C   0  0  0  0  0  0  0  0  0  0  0  0
  7  6  1  0
  9  3  1  0
 11 10  1  0
 12 11  1  0
 13  1  1  0
 14 12  1  0
 16 12  1  0
 17 15  1  0
 18  5  1  0
 19 17  1  0
 20  4  1  0
 20  6  1  0
 21 14  1  0
 23 12  1  0
 23 14  1  0
 24  8  1  0
 24 10  1  0
 24 15  1  0
 25  1  1  0
 25  9  1  0
 26  2  1  0
 26  5  1  0
 26  8  1  0
 27  3  1  0
 27  4  1  0
 28 18  1  0
 30 17  1  0
 31 10  1  0
 31 11  1  0
 31 15  1  0
 32 16  1  0
 32 18  1  0
 33  1  1  0
 33  2  1  0
 33 13  1  0
 34 28  1  0
 35 32  1  0
 36 35  2  0
 37 20  1  0
 37 29  1  0
 38 21  1  0
 38 22  1  0
 39 21  1  0
 40 30  2  0
 41  8  1  0
 42  2  1  0
 43 19  2  0
 44 29  1  0
 45 30  1  0
M  END
$$$$
