
     RDKit          2D

108117  0  0  0  0  0  0  0  0999 V2000
  -10.4658    9.1228    0.0000 C   0  0  0  0  0  0  0  0  0  0  0  0
   -9.9703    7.7070    0.0000 C   0  0  0  0  0  0  0  0  0  0  0  0
   -9.4749    6.2912    0.0000 C   0  0  0  0  0  0  0  0  0  0  0  0
   -8.9795    4.8753    0.0000 C   0  0  0  0  0  0  0  0  0  0  0  0
   -8.4841    3.4595    0.0000 C   0  0  0  0  0  0  0  0  0  0  0  0
   -9.1349    2.1081    0.0000 C   0  0  0  0  0  0  0  0  0  0  0  0
   -9.2190    0.6104    0.0000 C   0  0  0  0  0  0  0  0  0  0  0  0
  -10.5705    1.2612    0.0000 C   0  0  0  0  0  0  0  0  0  0  0  0
   -8.7236   -0.8054    0.0000 C   0  0  0  0  0  0  0  0  0  0  0  0
   -7.7241   -1.9239    0.0000 C   0  0  0  0  0  0  0  0  0  0  0  0
   -6.3726   -2.5747    0.0000 C   0  0  0  0  0  0  0  0  0  0  0  0
   -4.8750   -2.6588    0.0000 C   0  0  0  0  0  0  0  0  0  0  0  0
   -3.0682   -1.3515    0.0000 C   0  0  0  0  0  0  0  0  0  0  0  0
   -3.7190    0.0000    0.0000 C   0  0  0  0  0  0  0  0  0  0  0  0
   -3.0682    1.3515    0.0000 O   0  0  0  0  0  0  0  0  0  0  0  0
   -1.6058    1.6852    0.0000 C   0  0  0  0  0  0  0  0  0  0  0  0
   -0.6273    2.8222    0.0000 C   0  0  0  0  0  0  0  0  0  0  0  0
    0.0933    4.1377    0.0000 C   0  0  0  0  0  0  0  0  0  0  0  0
   -0.9351    5.2296    0.0000 O   0  0  0  0  0  0  0  0  0  0  0  0
   -2.2914    4.5889    0.0000 C   0  0  0  0  0  0  0  0  0  0  0  0
   -3.6069    5.3096    0.0000 O   0  0  0  0  0  0  0  0  0  0  0  0
   -3.1007    4.2195    0.0000 C   0  0  0  0  0  0  0  0  0  0  0  0
   -4.4522    4.8703    0.0000 C   0  0  0  0  0  0  0  0  0  0  0  0
   -5.1281    6.2094    0.0000 C   0  0  0  0  0  0  0  0  0  0  0  0
   -3.9268    7.1076    0.0000 C   0  0  0  0  0  0  0  0  0  0  0  0
   -2.7255    8.0059    0.0000 C   0  0  0  0  0  0  0  0  0  0  0  0
   -5.9498    4.9545    0.0000 C   0  0  0  0  0  0  0  0  0  0  0  0
   -7.3656    4.4590    0.0000 O   0  0  0  0  0  0  0  0  0  0  0  0
   -2.1012    3.1011    0.0000 C   0  0  0  0  0  0  0  0  0  0  0  0
   -0.4330    0.7500    0.0000 N   0  0  0  0  0  0  0  0  0  0  0  0
    0.8660    0.0000    0.0000 C   0  0  0  0  0  0  0  0  0  0  0  0
   -0.4330   -0.7500    0.0000 C   0  0  0  0  0  0  0  0  0  0  0  0
    0.4120   -1.9894    0.0000 C   0  0  0  0  0  0  0  0  0  0  0  0
    0.9808   -3.3773    0.0000 C   0  0  0  0  0  0  0  0  0  0  0  0
    2.4766   -3.2652    0.0000 C   0  0  0  0  0  0  0  0  0  0  0  0
    2.4317   -4.7645    0.0000 C   0  0  0  0  0  0  0  0  0  0  0  0
    2.8322   -1.8080    0.0000 C   0  0  0  0  0  0  0  0  0  0  0  0
    2.8771   -0.3087    0.0000 C   0  0  0  0  0  0  0  0  0  0  0  0
    2.9220    1.1907    0.0000 C   0  0  0  0  0  0  0  0  0  0  0  0
    4.1980    0.4021    0.0000 C   0  0  0  0  0  0  0  0  0  0  0  0
    1.5562   -1.0195    0.0000 C   0  0  0  0  0  0  0  0  0  0  0  0
    0.7112    0.2199    0.0000 C   0  0  0  0  0  0  0  0  0  0  0  0
   -0.1337    1.4593    0.0000 C   0  0  0  0  0  0  0  0  0  0  0  0
   -0.9787    2.6986    0.0000 C   0  0  0  0  0  0  0  0  0  0  0  0
   -1.6058   -1.6852    0.0000 C   0  0  0  0  0  0  0  0  0  0  0  0
  -10.9612   10.5386    0.0000 H   0  0  0  0  0  0  0  0  0  0  0  0
  -11.8816    8.6274    0.0000 H   0  0  0  0  0  0  0  0  0  0  0  0
   -9.0499    9.6182    0.0000 H   0  0  0  0  0  0  0  0  0  0  0  0
  -11.3862    7.2116    0.0000 H   0  0  0  0  0  0  0  0  0  0  0  0
   -8.5545    8.2024    0.0000 H   0  0  0  0  0  0  0  0  0  0  0  0
   -8.0591    6.7866    0.0000 H   0  0  0  0  0  0  0  0  0  0  0  0
  -10.8907    5.7957    0.0000 H   0  0  0  0  0  0  0  0  0  0  0  0
   -7.5637    5.3708    0.0000 H   0  0  0  0  0  0  0  0  0  0  0  0
  -10.3953    4.3799    0.0000 H   0  0  0  0  0  0  0  0  0  0  0  0
   -9.9603    3.7256    0.0000 H   0  0  0  0  0  0  0  0  0  0  0  0
  -10.1344    3.2265    0.0000 H   0  0  0  0  0  0  0  0  0  0  0  0
  -10.6285    1.9700    0.0000 H   0  0  0  0  0  0  0  0  0  0  0  0
  -10.4510   -0.2453    0.0000 H   0  0  0  0  0  0  0  0  0  0  0  0
  -11.9219    1.9121    0.0000 H   0  0  0  0  0  0  0  0  0  0  0  0
  -11.2213   -0.0902    0.0000 H   0  0  0  0  0  0  0  0  0  0  0  0
  -10.0892    2.6820    0.0000 H   0  0  0  0  0  0  0  0  0  0  0  0
  -10.2203   -0.9045    0.0000 H   0  0  0  0  0  0  0  0  0  0  0  0
   -9.5343   -2.0674    0.0000 H   0  0  0  0  0  0  0  0  0  0  0  0
   -9.0690   -2.5882    0.0000 H   0  0  0  0  0  0  0  0  0  0  0  0
   -7.9901   -3.4001    0.0000 H   0  0  0  0  0  0  0  0  0  0  0  0
   -7.3609   -3.7031    0.0000 H   0  0  0  0  0  0  0  0  0  0  0  0
   -6.0535   -4.0403    0.0000 H   0  0  0  0  0  0  0  0  0  0  0  0
   -5.3562   -4.0795    0.0000 H   0  0  0  0  0  0  0  0  0  0  0  0
   -3.8755   -3.7773    0.0000 H   0  0  0  0  0  0  0  0  0  0  0  0
   -4.0034   -2.5242    0.0000 H   0  0  0  0  0  0  0  0  0  0  0  0
   -4.8917   -0.9352    0.0000 H   0  0  0  0  0  0  0  0  0  0  0  0
   -4.8917    0.9352    0.0000 H   0  0  0  0  0  0  0  0  0  0  0  0
    0.7006    2.1246    0.0000 H   0  0  0  0  0  0  0  0  0  0  0  0
    1.3263    3.2835    0.0000 H   0  0  0  0  0  0  0  0  0  0  0  0
    1.0718    5.2747    0.0000 H   0  0  0  0  0  0  0  0  0  0  0  0
   -3.1008    6.7217    0.0000 H   0  0  0  0  0  0  0  0  0  0  0  0
   -2.1987    5.4180    0.0000 H   0  0  0  0  0  0  0  0  0  0  0  0
   -3.6917    6.1633    0.0000 H   0  0  0  0  0  0  0  0  0  0  0  0
   -6.2213    7.2365    0.0000 H   0  0  0  0  0  0  0  0  0  0  0  0
   -4.8250    8.3090    0.0000 H   0  0  0  0  0  0  0  0  0  0  0  0
   -2.6577    6.3081    0.0000 H   0  0  0  0  0  0  0  0  0  0  0  0
   -1.5242    8.9041    0.0000 H   0  0  0  0  0  0  0  0  0  0  0  0
   -3.6237    9.2072    0.0000 H   0  0  0  0  0  0  0  0  0  0  0  0
   -1.8273    6.8045    0.0000 H   0  0  0  0  0  0  0  0  0  0  0  0
   -6.8740    6.1359    0.0000 H   0  0  0  0  0  0  0  0  0  0  0  0
    1.8302    1.1491    0.0000 H   0  0  0  0  0  0  0  0  0  0  0  0
    2.0796   -0.8816    0.0000 H   0  0  0  0  0  0  0  0  0  0  0  0
   -0.8124   -2.8559    0.0000 H   0  0  0  0  0  0  0  0  0  0  0  0
   -0.4590   -3.7980    0.0000 H   0  0  0  0  0  0  0  0  0  0  0  0
    1.0667   -4.8749    0.0000 H   0  0  0  0  0  0  0  0  0  0  0  0
    3.9630   -3.4666    0.0000 H   0  0  0  0  0  0  0  0  0  0  0  0
    2.3869   -6.2639    0.0000 H   0  0  0  0  0  0  0  0  0  0  0  0
    3.9311   -4.8094    0.0000 H   0  0  0  0  0  0  0  0  0  0  0  0
    0.9381   -4.9028    0.0000 H   0  0  0  0  0  0  0  0  0  0  0  0
    4.3187   -2.0093    0.0000 H   0  0  0  0  0  0  0  0  0  0  0  0
    1.6600    2.0015    0.0000 H   0  0  0  0  0  0  0  0  0  0  0  0
    3.4769    2.5842    0.0000 H   0  0  0  0  0  0  0  0  0  0  0  0
    5.1961    1.5219    0.0000 H   0  0  0  0  0  0  0  0  0  0  0  0
    5.1274   -0.7752    0.0000 H   0  0  0  0  0  0  0  0  0  0  0  0
   -0.6958   -0.3001    0.0000 H   0  0  0  0  0  0  0  0  0  0  0  0
    1.7093    1.3397    0.0000 H   0  0  0  0  0  0  0  0  0  0  0  0
    1.1056    2.3042    0.0000 H   0  0  0  0  0  0  0  0  0  0  0  0
   -1.3731    0.6143    0.0000 H   0  0  0  0  0  0  0  0  0  0  0  0
   -1.8237    3.9380    0.0000 H   0  0  0  0  0  0  0  0  0  0  0  0
   -2.3857    2.1786    0.0000 H   0  0  0  0  0  0  0  0  0  0  0  0
    0.0193    3.8184    0.0000 H   0  0  0  0  0  0  0  0  0  0  0  0
   -0.5558   -2.7564    0.0000 H   0  0  0  0  0  0  0  0  0  0  0  0
   -2.2566   -3.0367    0.0000 H   0  0  0  0  0  0  0  0  0  0  0  0
  1  2  1  0
  2  3  1  0
  3  4  1  0
  4  5  1  0
  5  6  1  0
  6  7  1  0
  7  8  1  0
  7  9  1  0
  9 10  1  0
 10 11  1  0
 11 12  1  0
 12 13  1  0
 13 14  1  0
 14 15  1  0
 15 16  1  0
 16 17  1  0
 17 18  1  0
 18 19  1  0
 19 20  1  0
 20 21  1  6
 20 22  1  0
 22 23  1  0
 23 24  1  0
 24 25  1  0
 25 26  1  0
 24 27  1  0
 27 28  1  0
 22 29  1  0
 16 30  1  1
 30 31  1  0
 32 31  1  1
 32 33  1  0
 33 34  1  0
 34 35  1  0
 35 36  1  0
 35 37  1  0
 37 38  1  0
 38 39  1  0
 39 40  1  0
 38 41  1  0
 41 42  1  6
 42 43  1  0
 43 44  1  0
 32 45  1  0
 28  5  1  0
 32 30  1  0
 41 33  1  0
 45 13  1  0
 29 16  1  0
 41 37  1  0
 29 17  1  0
 40 38  1  0
 29 20  1  1
 27 23  1  0
  1 46  1  0
  1 47  1  0
  1 48  1  0
  2 49  1  0
  2 50  1  0
  3 51  1  0
  3 52  1  0
  4 53  1  0
  4 54  1  0
  5 55  1  1
  6 56  1  0
  6 57  1  0
  7 58  1  1
  8 59  1  0
  8 60  1  0
  8 61  1  0
  9 62  1  0
  9 63  1  0
 10 64  1  0
 10 65  1  0
 11 66  1  0
 11 67  1  0
 12 68  1  0
 12 69  1  0
 13 70  1  1
 14 71  1  0
 14 72  1  0
 17 73  1  6
 18 74  1  0
 18 75  1  0
 21 76  1  0
 22 77  1  6
 23 78  1  1
 24 79  1  6
 25 80  1  0
 25 81  1  0
 26 82  1  0
 26 83  1  0
 26 84  1  0
 27 85  1  6
 31 86  1  0
 31 87  1  0
 33 88  1  1
 34 89  1  0
 34 90  1  0
 35 91  1  6
 36 92  1  0
 36 93  1  0
 36 94  1  0
 37 95  1  1
 39 96  1  0
 39 97  1  0
 40 98  1  0
 40 99  1  0
 42100  1  0
 42101  1  0
 43102  1  0
 43103  1  0
 44104  1  0
 44105  1  0
 44106  1  0
 45107  1  0
 45108  1  0
M  END
$$$$
