
     RDKit          2D

 65 73  0  0  0  0  0  0  0  0999 V2000
   -4.0975   -2.8570    0.0000 N   0  0  0  0  0  0  0  0  0  0  0  0
   -4.4435   -1.3974    0.0000 C   0  0  0  0  0  0  0  0  0  0  0  0
   -3.3524   -0.3681    0.0000 C   0  0  0  0  0  0  0  0  0  0  0  0
   -2.1492   -1.2638    0.0000 C   0  0  0  0  0  0  0  0  0  0  0  0
   -0.9460   -2.1595    0.0000 C   0  0  0  0  0  0  0  0  0  0  0  0
   -0.4330   -3.5691    0.0000 C   0  0  0  0  0  0  0  0  0  0  0  0
    0.8660   -4.3191    0.0000 P   0  0  0  0  0  0  0  0  0  0  0  0
    0.6056   -5.7963    0.0000 Br  0  0  0  0  0  0  0  0  0  0  0  0
    2.3432   -4.0586    0.0000 C   0  0  0  0  0  0  0  0  0  0  0  0
    3.3074   -2.9095    0.0000 C   0  0  0  0  0  0  0  0  0  0  0  0
    3.3074   -1.4095    0.0000 C   0  0  0  0  0  0  0  0  0  0  0  0
    2.3432   -0.2605    0.0000 C   0  0  0  0  0  0  0  0  0  0  0  0
    0.8660    0.0000    0.0000 C   0  0  0  0  0  0  0  0  0  0  0  0
   -0.4330    0.7500    0.0000 C   0  0  0  0  0  0  0  0  0  0  0  0
   -1.9102    1.0105    0.0000 C   0  0  0  0  0  0  0  0  0  0  0  0
   -3.3874    1.2709    0.0000 C   0  0  0  0  0  0  0  0  0  0  0  0
   -3.3874    2.7709    0.0000 C   0  0  0  0  0  0  0  0  0  0  0  0
   -4.6865    3.5209    0.0000 C   0  0  0  0  0  0  0  0  0  0  0  0
   -4.6865    2.0209    0.0000 C   0  0  0  0  0  0  0  0  0  0  0  0
   -5.9855    1.2709    0.0000 N   0  0  0  0  0  0  0  0  0  0  0  0
   -7.2846    2.0209    0.0000 C   0  0  0  0  0  0  0  0  0  0  0  0
   -8.5836    2.7709    0.0000 C   0  0  0  0  0  0  0  0  0  0  0  0
   -9.5478    1.6219    0.0000 C   0  0  0  0  0  0  0  0  0  0  0  0
  -11.0250    1.8824    0.0000 C   0  0  0  0  0  0  0  0  0  0  0  0
  -10.0608    3.0314    0.0000 C   0  0  0  0  0  0  0  0  0  0  0  0
   -0.4330   -0.7500    0.0000 C   0  0  0  0  0  0  0  0  0  0  0  0
   -4.7894    0.0621    0.0000 C   0  0  0  0  0  0  0  0  0  0  0  0
   -6.2264    0.4923    0.0000 C   0  0  0  0  0  0  0  0  0  0  0  0
   -6.3282    1.2830    0.0000 I   0  0  0  0  0  0  0  0  0  0  0  0
   -5.8805   -0.9672    0.0000 C   0  0  0  0  0  0  0  0  0  0  0  0
   -5.1886   -3.8864    0.0000 H   0  0  0  0  0  0  0  0  0  0  0  0
   -2.9103   -3.7737    0.0000 H   0  0  0  0  0  0  0  0  0  0  0  0
   -3.3875    1.1315    0.0000 H   0  0  0  0  0  0  0  0  0  0  0  0
   -1.4068    0.0396    0.0000 H   0  0  0  0  0  0  0  0  0  0  0  0
   -2.8916   -2.5672    0.0000 H   0  0  0  0  0  0  0  0  0  0  0  0
   -2.1492   -3.0553    0.0000 H   0  0  0  0  0  0  0  0  0  0  0  0
   -1.8649   -4.0161    0.0000 H   0  0  0  0  0  0  0  0  0  0  0  0
   -0.7789   -5.0286    0.0000 H   0  0  0  0  0  0  0  0  0  0  0  0
    2.1691   -5.5485    0.0000 H   0  0  0  0  0  0  0  0  0  0  0  0
    3.6379   -4.8162    0.0000 H   0  0  0  0  0  0  0  0  0  0  0  0
    4.2783   -4.0530    0.0000 H   0  0  0  0  0  0  0  0  0  0  0  0
    4.7861   -2.6577    0.0000 H   0  0  0  0  0  0  0  0  0  0  0  0
    4.7861   -1.6614    0.0000 H   0  0  0  0  0  0  0  0  0  0  0  0
    4.2783   -0.2661    0.0000 H   0  0  0  0  0  0  0  0  0  0  0  0
    3.6379    0.4971    0.0000 H   0  0  0  0  0  0  0  0  0  0  0  0
    2.3520    1.2395    0.0000 H   0  0  0  0  0  0  0  0  0  0  0  0
    1.2034    1.4616    0.0000 H   0  0  0  0  0  0  0  0  0  0  0  0
    0.0800    2.1595    0.0000 H   0  0  0  0  0  0  0  0  0  0  0  0
   -1.6498    2.4877    0.0000 H   0  0  0  0  0  0  0  0  0  0  0  0
   -2.6829   -0.2752    0.0000 H   0  0  0  0  0  0  0  0  0  0  0  0
   -4.2263    0.0274    0.0000 H   0  0  0  0  0  0  0  0  0  0  0  0
   -2.0884    3.5209    0.0000 H   0  0  0  0  0  0  0  0  0  0  0  0
   -4.1734    4.9305    0.0000 H   0  0  0  0  0  0  0  0  0  0  0  0
   -6.1209    3.9595    0.0000 H   0  0  0  0  0  0  0  0  0  0  0  0
   -6.6899   -0.0534    0.0000 H   0  0  0  0  0  0  0  0  0  0  0  0
   -6.6985    3.4017    0.0000 H   0  0  0  0  0  0  0  0  0  0  0  0
   -8.1873    0.8230    0.0000 H   0  0  0  0  0  0  0  0  0  0  0  0
   -8.0706    4.1805    0.0000 H   0  0  0  0  0  0  0  0  0  0  0  0
   -9.0347    0.2123    0.0000 H   0  0  0  0  0  0  0  0  0  0  0  0
  -11.5380    0.4728    0.0000 H   0  0  0  0  0  0  0  0  0  0  0  0
  -12.3240    2.6324    0.0000 H   0  0  0  0  0  0  0  0  0  0  0  0
  -10.5738    4.4410    0.0000 H   0  0  0  0  0  0  0  0  0  0  0  0
   -1.9102   -0.4895    0.0000 H   0  0  0  0  0  0  0  0  0  0  0  0
   -7.7020    0.2232    0.0000 H   0  0  0  0  0  0  0  0  0  0  0  0
   -6.9715   -1.9966    0.0000 H   0  0  0  0  0  0  0  0  0  0  0  0
  1  2  1  0
  2  3  1  0
  3  4  1  0
  4  5  1  0
  5  6  1  0
  6  7  1  0
  7  8  1  0
  7  9  1  0
  9 10  1  0
 10 11  1  0
 11 12  1  0
 12 13  1  0
 13 14  1  0
 14 15  1  0
 15 16  1  0
 16 17  1  0
 17 18  1  0
 18 19  1  0
 19 20  1  0
 20 21  1  0
 21 22  1  0
 22 23  1  0
 23 24  1  0
 24 25  1  0
 14 26  1  0
  3 27  1  0
 27 28  1  0
 28 29  1  0
 28 30  1  0
 27  2  1  0
 30  2  1  0
 26  5  1  0
 30 27  1  0
 26 13  1  0
 19 16  1  0
 25 22  1  0
 19 17  1  0
 25 23  1  0
  1 31  1  0
  1 32  1  0
  3 33  1  0
  4 34  1  0
  4 35  1  0
  5 36  1  0
  6 37  1  0
  6 38  1  0
  9 39  1  0
  9 40  1  0
 10 41  1  0
 10 42  1  0
 11 43  1  0
 11 44  1  0
 12 45  1  0
 12 46  1  0
 13 47  1  0
 14 48  1  0
 15 49  1  0
 15 50  1  0
 16 51  1  0
 17 52  1  0
 18 53  1  0
 18 54  1  0
 20 55  1  0
 21 56  1  0
 21 57  1  0
 22 58  1  0
 23 59  1  0
 24 60  1  0
 24 61  1  0
 25 62  1  0
 26 63  1  0
 28 64  1  0
 30 65  1  0
M  END
$$$$
