
     RDKit          2D

 68 74  0  0  0  0  0  0  0  0999 V2000
  -15.3539    5.2362    0.0000 C   0  0  0  0  0  0  0  0  0  0  0  0
  -13.9251    4.7798    0.0000 C   0  0  0  0  0  0  0  0  0  0  0  0
  -12.4962    4.3234    0.0000 C   0  0  0  0  0  0  0  0  0  0  0  0
  -11.0673    3.8670    0.0000 C   0  0  0  0  0  0  0  0  0  0  0  0
   -9.6384    3.4106    0.0000 C   0  0  0  0  0  0  0  0  0  0  0  0
   -8.2096    2.9542    0.0000 C   0  0  0  0  0  0  0  0  0  0  0  0
   -6.7807    2.4977    0.0000 C   0  0  0  0  0  0  0  0  0  0  0  0
   -6.9820    1.0113    0.0000 C   0  0  0  0  0  0  0  0  0  0  0  0
   -6.8699   -0.4845    0.0000 C   0  0  0  0  0  0  0  0  0  0  0  0
   -6.4493   -1.9243    0.0000 N   0  0  0  0  0  0  0  0  0  0  0  0
   -5.4127   -0.8401    0.0000 C   0  0  0  0  0  0  0  0  0  0  0  0
   -4.6242    0.4359    0.0000 N   0  0  0  0  0  0  0  0  0  0  0  0
   -3.1284    0.5480    0.0000 C   0  0  0  0  0  0  0  0  0  0  0  0
   -3.3519   -0.9352    0.0000 C   0  0  0  0  0  0  0  0  0  0  0  0
   -3.5705    1.9814    0.0000 C   0  0  0  0  0  0  0  0  0  0  0  0
   -2.7255    3.2207    0.0000 C   0  0  0  0  0  0  0  0  0  0  0  0
   -1.2297    3.3328    0.0000 C   0  0  0  0  0  0  0  0  0  0  0  0
   -0.2094    2.2332    0.0000 C   0  0  0  0  0  0  0  0  0  0  0  0
   -0.4330    0.7500    0.0000 C   0  0  0  0  0  0  0  0  0  0  0  0
    0.8660    0.0000    0.0000 C   0  0  0  0  0  0  0  0  0  0  0  0
    1.8302    1.1491    0.0000 C   0  0  0  0  0  0  0  0  0  0  0  0
    2.7944    2.2981    0.0000 C   0  0  0  0  0  0  0  0  0  0  0  0
    4.0934    3.0481    0.0000 C   0  0  0  0  0  0  0  0  0  0  0  0
    4.0934    1.5481    0.0000 C   0  0  0  0  0  0  0  0  0  0  0  0
    5.5706    1.2877    0.0000 C   0  0  0  0  0  0  0  0  0  0  0  0
   -0.4330   -0.7500    0.0000 C   0  0  0  0  0  0  0  0  0  0  0  0
   -1.7321    0.0000    0.0000 C   0  0  0  0  0  0  0  0  0  0  0  0
   -5.5941    1.5802    0.0000 C   0  0  0  0  0  0  0  0  0  0  0  0
  -16.7828    5.6926    0.0000 H   0  0  0  0  0  0  0  0  0  0  0  0
  -15.8103    3.8073    0.0000 H   0  0  0  0  0  0  0  0  0  0  0  0
  -14.8975    6.6651    0.0000 H   0  0  0  0  0  0  0  0  0  0  0  0
  -14.3815    3.3509    0.0000 H   0  0  0  0  0  0  0  0  0  0  0  0
  -13.4687    6.2087    0.0000 H   0  0  0  0  0  0  0  0  0  0  0  0
  -12.0398    5.7522    0.0000 H   0  0  0  0  0  0  0  0  0  0  0  0
  -12.9526    2.8945    0.0000 H   0  0  0  0  0  0  0  0  0  0  0  0
  -11.5237    2.4381    0.0000 H   0  0  0  0  0  0  0  0  0  0  0  0
  -10.6109    5.2958    0.0000 H   0  0  0  0  0  0  0  0  0  0  0  0
   -9.1820    4.8394    0.0000 H   0  0  0  0  0  0  0  0  0  0  0  0
  -10.0948    1.9817    0.0000 H   0  0  0  0  0  0  0  0  0  0  0  0
   -7.7531    4.3830    0.0000 H   0  0  0  0  0  0  0  0  0  0  0  0
   -8.7740    1.7278    0.0000 H   0  0  0  0  0  0  0  0  0  0  0  0
   -6.0831    3.8257    0.0000 H   0  0  0  0  0  0  0  0  0  0  0  0
   -8.3263    0.8869    0.0000 H   0  0  0  0  0  0  0  0  0  0  0  0
   -8.3458   -0.7523    0.0000 H   0  0  0  0  0  0  0  0  0  0  0  0
   -6.8049   -3.3815    0.0000 H   0  0  0  0  0  0  0  0  0  0  0  0
   -4.6342   -1.4421    0.0000 H   0  0  0  0  0  0  0  0  0  0  0  0
   -3.5755   -2.4185    0.0000 H   0  0  0  0  0  0  0  0  0  0  0  0
   -4.1455   -1.0107    0.0000 H   0  0  0  0  0  0  0  0  0  0  0  0
   -1.9070   -1.3379    0.0000 H   0  0  0  0  0  0  0  0  0  0  0  0
   -5.0124    1.5680    0.0000 H   0  0  0  0  0  0  0  0  0  0  0  0
   -4.4491    3.1971    0.0000 H   0  0  0  0  0  0  0  0  0  0  0  0
   -3.4755    4.5198    0.0000 H   0  0  0  0  0  0  0  0  0  0  0  0
   -0.6817    4.7291    0.0000 H   0  0  0  0  0  0  0  0  0  0  0  0
    0.6355    3.4726    0.0000 H   0  0  0  0  0  0  0  0  0  0  0  0
    1.2432    1.8595    0.0000 H   0  0  0  0  0  0  0  0  0  0  0  0
    1.8302   -1.1491    0.0000 H   0  0  0  0  0  0  0  0  0  0  0  0
    2.8532    0.0520    0.0000 H   0  0  0  0  0  0  0  0  0  0  0  0
    0.8072    2.2461    0.0000 H   0  0  0  0  0  0  0  0  0  0  0  0
    1.8302    3.4472    0.0000 H   0  0  0  0  0  0  0  0  0  0  0  0
    3.5804    4.4577    0.0000 H   0  0  0  0  0  0  0  0  0  0  0  0
    5.5279    3.4867    0.0000 H   0  0  0  0  0  0  0  0  0  0  0  0
    3.7560    0.0866    0.0000 H   0  0  0  0  0  0  0  0  0  0  0  0
    7.0478    1.0272    0.0000 H   0  0  0  0  0  0  0  0  0  0  0  0
    5.3102   -0.1896    0.0000 H   0  0  0  0  0  0  0  0  0  0  0  0
    6.0092    2.7221    0.0000 H   0  0  0  0  0  0  0  0  0  0  0  0
   -0.4330   -2.2500    0.0000 H   0  0  0  0  0  0  0  0  0  0  0  0
   -2.2133   -1.4207    0.0000 H   0  0  0  0  0  0  0  0  0  0  0  0
   -4.6974    2.7826    0.0000 H   0  0  0  0  0  0  0  0  0  0  0  0
  1  2  1  0
  2  3  1  0
  3  4  1  0
  4  5  1  0
  5  6  1  0
  6  7  1  0
  7  8  1  0
  8  9  1  0
  9 10  1  0
 10 11  1  0
 11 12  1  0
 12 13  1  0
 13 14  1  0
 13 15  1  0
 15 16  1  0
 16 17  2  0
 17 18  1  0
 18 19  1  0
 19 20  1  0
 20 21  1  0
 21 22  1  0
 22 23  1  0
 23 24  1  0
 24 25  1  0
 20 26  1  0
 26 27  1  0
 12 28  1  0
 28  7  1  0
 28  8  1  0
 11  9  1  0
 27 13  1  0
 26 19  1  0
 27 19  1  0
 24 22  1  0
  1 29  1  0
  1 30  1  0
  1 31  1  0
  2 32  1  0
  2 33  1  0
  3 34  1  0
  3 35  1  0
  4 36  1  0
  4 37  1  0
  5 38  1  0
  5 39  1  0
  6 40  1  0
  6 41  1  0
  7 42  1  0
  8 43  1  0
  9 44  1  0
 10 45  1  0
 11 46  1  0
 14 47  1  0
 14 48  1  0
 14 49  1  0
 15 50  1  0
 15 51  1  0
 16 52  1  0
 17 53  1  0
 18 54  1  0
 18 55  1  0
 20 56  1  0
 21 57  1  0
 21 58  1  0
 22 59  1  0
 23 60  1  0
 23 61  1  0
 24 62  1  0
 25 63  1  0
 25 64  1  0
 25 65  1  0
 26 66  1  0
 27 67  1  0
 28 68  1  0
M  END
$$$$
