
     RDKit          2D

 25 27  0  0  0  0  0  0  0  0999 V2000
    1.2760    0.0000    0.0000 C   0  0  0  0  0  0  0  0  0  0  0  0
    0.3943    1.2135    0.0000 C   0  0  0  0  0  0  0  0  0  0  0  0
   -1.0323    0.7500    0.0000 C   0  0  0  0  0  0  0  0  0  0  0  0
   -1.0323   -0.7500    0.0000 C   0  0  0  0  0  0  0  0  0  0  0  0
   -1.3442   -2.2172    0.0000 C   0  0  0  0  0  0  0  0  0  0  0  0
   -2.7707   -2.6807    0.0000 C   0  0  0  0  0  0  0  0  0  0  0  0
   -3.0826   -4.1480    0.0000 C   0  0  0  0  0  0  0  0  0  0  0  0
   -4.5817   -4.0956    0.0000 C   0  0  0  0  0  0  0  0  0  0  0  0
   -5.3766   -5.3677    0.0000 C   0  0  0  0  0  0  0  0  0  0  0  0
   -3.8775   -5.4200    0.0000 C   0  0  0  0  0  0  0  0  0  0  0  0
    0.3943   -1.2135    0.0000 C   0  0  0  0  0  0  0  0  0  0  0  0
    2.7760   -0.0000    0.0000 H   0  0  0  0  0  0  0  0  0  0  0  0
    0.8578    2.6401    0.0000 H   0  0  0  0  0  0  0  0  0  0  0  0
   -2.5241    0.5932    0.0000 H   0  0  0  0  0  0  0  0  0  0  0  0
   -1.3442    2.2172    0.0000 H   0  0  0  0  0  0  0  0  0  0  0  0
   -2.5241   -0.5932    0.0000 H   0  0  0  0  0  0  0  0  0  0  0  0
   -0.5471   -3.1342    0.0000 H   0  0  0  0  0  0  0  0  0  0  0  0
   -3.8855   -1.6771    0.0000 H   0  0  0  0  0  0  0  0  0  0  0  0
   -1.6918   -4.7099    0.0000 H   0  0  0  0  0  0  0  0  0  0  0  0
   -5.2859   -2.7712    0.0000 H   0  0  0  0  0  0  0  0  0  0  0  0
   -6.7673   -4.8058    0.0000 H   0  0  0  0  0  0  0  0  0  0  0  0
   -5.6884   -6.8349    0.0000 H   0  0  0  0  0  0  0  0  0  0  0  0
   -3.1733   -6.7445    0.0000 H   0  0  0  0  0  0  0  0  0  0  0  0
    1.6933   -1.9635    0.0000 H   0  0  0  0  0  0  0  0  0  0  0  0
    0.0391   -2.3754    0.0000 H   0  0  0  0  0  0  0  0  0  0  0  0
  1  2  2  0
  2  3  1  0
  3  4  1  0
  4  5  1  0
  5  6  2  3
  6  7  1  0
  7  8  1  0
  8  9  1  0
  9 10  1  0
  4 11  1  0
 11  1  1  0
 10  7  1  0
 10  8  1  0
  1 12  1  0
  2 13  1  0
  3 14  1  0
  3 15  1  0
  4 16  1  0
  5 17  1  0
  6 18  1  0
  7 19  1  6
  8 20  1  1
  9 21  1  0
  9 22  1  0
 10 23  1  1
 11 24  1  0
 11 25  1  0
M  END
$$$$
