
     RDKit          2D

 25 28  0  0  0  0  0  0  0  0999 V2000
    0.4801    1.9400    0.0000 N   0  0  0  0  0  0  0  0  0  0  0  0
   -0.4330    0.7500    0.0000 C   0  0  0  0  0  0  0  0  0  0  0  0
    0.8660    0.0000    0.0000 O   0  0  0  0  0  0  0  0  0  0  0  0
   -0.4330   -0.7500    0.0000 C   0  0  0  0  0  0  0  0  0  0  0  0
   -1.4937   -1.8107    0.0000 C   0  0  0  0  0  0  0  0  0  0  0  0
   -2.9937   -1.8107    0.0000 C   0  0  0  0  0  0  0  0  0  0  0  0
   -4.0543   -0.7500    0.0000 C   0  0  0  0  0  0  0  0  0  0  0  0
   -5.5032   -0.3618    0.0000 O   0  0  0  0  0  0  0  0  0  0  0  0
   -4.0543    0.7500    0.0000 C   0  0  0  0  0  0  0  0  0  0  0  0
   -2.9937    1.8107    0.0000 C   0  0  0  0  0  0  0  0  0  0  0  0
   -4.4426    2.1989    0.0000 C   0  0  0  0  0  0  0  0  0  0  0  0
   -1.4937    1.8107    0.0000 C   0  0  0  0  0  0  0  0  0  0  0  0
    1.9673    1.7442    0.0000 H   0  0  0  0  0  0  0  0  0  0  0  0
    0.0793    3.3855    0.0000 H   0  0  0  0  0  0  0  0  0  0  0  0
    0.4801   -1.9400    0.0000 H   0  0  0  0  0  0  0  0  0  0  0  0
   -1.7024   -3.2961    0.0000 H   0  0  0  0  0  0  0  0  0  0  0  0
   -0.1946   -2.5607    0.0000 H   0  0  0  0  0  0  0  0  0  0  0  0
   -4.1916   -2.7134    0.0000 H   0  0  0  0  0  0  0  0  0  0  0  0
   -2.7850   -3.2961    0.0000 H   0  0  0  0  0  0  0  0  0  0  0  0
   -4.9571   -1.9479    0.0000 H   0  0  0  0  0  0  0  0  0  0  0  0
   -6.5639   -1.4224    0.0000 H   0  0  0  0  0  0  0  0  0  0  0  0
   -5.5415    0.5542    0.0000 H   0  0  0  0  0  0  0  0  0  0  0  0
   -2.7979    3.2978    0.0000 H   0  0  0  0  0  0  0  0  0  0  0  0
   -5.5032    3.2595    0.0000 H   0  0  0  0  0  0  0  0  0  0  0  0
   -1.0929    3.2561    0.0000 H   0  0  0  0  0  0  0  0  0  0  0  0
  1  2  1  0
  2  3  1  0
  3  4  1  0
  4  5  1  0
  5  6  1  0
  6  7  1  0
  7  8  1  0
  7  9  1  0
  9 10  1  0
 10 11  1  0
 11 12  1  0
  4  2  1  0
 11  9  1  0
 12  2  1  0
 12 10  1  0
  1 13  1  0
  1 14  1  0
  4 15  1  0
  5 16  1  0
  5 17  1  0
  6 18  1  0
  6 19  1  0
  7 20  1  0
  8 21  1  0
  9 22  1  0
 10 23  1  0
 11 24  1  0
 12 25  1  0
M  END
$$$$
