
     RDKit          2D

109116  0  0  0  0  0  0  0  0999 V2000
   -7.6946    4.3906    0.0000 C   0  0  0  0  0  0  0  0  0  0  0  0
   -6.8129    3.1771    0.0000 C   0  0  0  0  0  0  0  0  0  0  0  0
   -5.9312    1.9635    0.0000 C   0  0  0  0  0  0  0  0  0  0  0  0
   -5.0495    0.7500    0.0000 C   0  0  0  0  0  0  0  0  0  0  0  0
   -4.1679    1.9635    0.0000 C   0  0  0  0  0  0  0  0  0  0  0  0
   -2.7413    2.4271    0.0000 C   0  0  0  0  0  0  0  0  0  0  0  0
   -1.3147    1.9635    0.0000 C   0  0  0  0  0  0  0  0  0  0  0  0
    0.1119    2.4271    0.0000 C   0  0  0  0  0  0  0  0  0  0  0  0
    1.5385    2.8906    0.0000 C   0  0  0  0  0  0  0  0  0  0  0  0
   -0.4330    0.7500    0.0000 C   0  0  0  0  0  0  0  0  0  0  0  0
    0.8660    0.0000    0.0000 C   0  0  0  0  0  0  0  0  0  0  0  0
   -0.4330   -0.7500    0.0000 C   0  0  0  0  0  0  0  0  0  0  0  0
   -1.3147   -1.9635    0.0000 C   0  0  0  0  0  0  0  0  0  0  0  0
   -1.3147   -3.4635    0.0000 O   0  0  0  0  0  0  0  0  0  0  0  0
   -2.7413   -2.4271    0.0000 C   0  0  0  0  0  0  0  0  0  0  0  0
   -3.6230   -3.6406    0.0000 C   0  0  0  0  0  0  0  0  0  0  0  0
   -4.5046   -4.8541    0.0000 C   0  0  0  0  0  0  0  0  0  0  0  0
   -5.6193   -5.8578    0.0000 C   0  0  0  0  0  0  0  0  0  0  0  0
   -5.1363   -7.3426    0.0000 C   0  0  0  0  0  0  0  0  0  0  0  0
   -4.8245   -8.8098    0.0000 C   0  0  0  0  0  0  0  0  0  0  0  0
   -4.5126  -10.2770    0.0000 C   0  0  0  0  0  0  0  0  0  0  0  0
   -4.2007  -11.7442    0.0000 C   0  0  0  0  0  0  0  0  0  0  0  0
   -3.8889  -13.2114    0.0000 C   0  0  0  0  0  0  0  0  0  0  0  0
   -3.5770  -14.6787    0.0000 C   0  0  0  0  0  0  0  0  0  0  0  0
   -3.2651  -16.1459    0.0000 N   0  0  0  0  0  0  0  0  0  0  0  0
   -3.3573   -8.4979    0.0000 C   0  0  0  0  0  0  0  0  0  0  0  0
   -2.2425   -7.4942    0.0000 C   0  0  0  0  0  0  0  0  0  0  0  0
   -1.7790   -6.0676    0.0000 C   0  0  0  0  0  0  0  0  0  0  0  0
   -1.3155   -4.6410    0.0000 C   0  0  0  0  0  0  0  0  0  0  0  0
   -2.7421   -4.1775    0.0000 C   0  0  0  0  0  0  0  0  0  0  0  0
   -2.2785   -2.7509    0.0000 C   0  0  0  0  0  0  0  0  0  0  0  0
   -0.8520   -3.2145    0.0000 C   0  0  0  0  0  0  0  0  0  0  0  0
    0.5746   -3.6780    0.0000 C   0  0  0  0  0  0  0  0  0  0  0  0
    2.0012   -4.1415    0.0000 C   0  0  0  0  0  0  0  0  0  0  0  0
   -3.2056   -5.6041    0.0000 C   0  0  0  0  0  0  0  0  0  0  0  0
   -3.6691   -7.0307    0.0000 C   0  0  0  0  0  0  0  0  0  0  0  0
   -4.1679   -1.9635    0.0000 N   0  0  0  0  0  0  0  0  0  0  0  0
   -5.0495   -0.7500    0.0000 C   0  0  0  0  0  0  0  0  0  0  0  0
   -6.4761   -1.2135    0.0000 C   0  0  0  0  0  0  0  0  0  0  0  0
   -7.9027   -1.6771    0.0000 C   0  0  0  0  0  0  0  0  0  0  0  0
   -9.3293   -2.1406    0.0000 O   0  0  0  0  0  0  0  0  0  0  0  0
   -4.1679    0.4635    0.0000 C   0  0  0  0  0  0  0  0  0  0  0  0
   -2.7413    0.9271    0.0000 N   0  0  0  0  0  0  0  0  0  0  0  0
   -1.6266   -0.0766    0.0000 O   0  0  0  0  0  0  0  0  0  0  0  0
   -8.5762    5.6041    0.0000 H   0  0  0  0  0  0  0  0  0  0  0  0
   -6.4810    5.2723    0.0000 H   0  0  0  0  0  0  0  0  0  0  0  0
   -8.9081    3.5089    0.0000 H   0  0  0  0  0  0  0  0  0  0  0  0
   -5.5994    4.0587    0.0000 H   0  0  0  0  0  0  0  0  0  0  0  0
   -8.0264    2.2954    0.0000 H   0  0  0  0  0  0  0  0  0  0  0  0
   -4.8342    2.9866    0.0000 H   0  0  0  0  0  0  0  0  0  0  0  0
   -7.2432    1.2363    0.0000 H   0  0  0  0  0  0  0  0  0  0  0  0
   -6.5220    0.4638    0.0000 H   0  0  0  0  0  0  0  0  0  0  0  0
   -4.8950    3.2755    0.0000 H   0  0  0  0  0  0  0  0  0  0  0  0
   -2.0141    3.7390    0.0000 H   0  0  0  0  0  0  0  0  0  0  0  0
   -3.6230    3.6406    0.0000 H   0  0  0  0  0  0  0  0  0  0  0  0
   -1.1318    3.4523    0.0000 H   0  0  0  0  0  0  0  0  0  0  0  0
   -0.3516    3.8536    0.0000 H   0  0  0  0  0  0  0  0  0  0  0  0
    0.7459    1.0676    0.0000 H   0  0  0  0  0  0  0  0  0  0  0  0
    2.9651    3.3541    0.0000 H   0  0  0  0  0  0  0  0  0  0  0  0
    1.0750    4.3172    0.0000 H   0  0  0  0  0  0  0  0  0  0  0  0
    2.1724    1.5311    0.0000 H   0  0  0  0  0  0  0  0  0  0  0  0
    0.9036    1.4309    0.0000 H   0  0  0  0  0  0  0  0  0  0  0  0
    1.9631    1.0230    0.0000 H   0  0  0  0  0  0  0  0  0  0  0  0
    1.8302   -1.1491    0.0000 H   0  0  0  0  0  0  0  0  0  0  0  0
    0.8106   -1.5887    0.0000 H   0  0  0  0  0  0  0  0  0  0  0  0
    0.1119   -2.4271    0.0000 H   0  0  0  0  0  0  0  0  0  0  0  0
   -0.2357   -4.5056    0.0000 H   0  0  0  0  0  0  0  0  0  0  0  0
   -2.1794   -3.8179    0.0000 H   0  0  0  0  0  0  0  0  0  0  0  0
   -2.6588   -4.7897    0.0000 H   0  0  0  0  0  0  0  0  0  0  0  0
   -4.9349   -2.9134    0.0000 H   0  0  0  0  0  0  0  0  0  0  0  0
   -5.7334   -3.9938    0.0000 H   0  0  0  0  0  0  0  0  0  0  0  0
   -6.5010   -4.6443    0.0000 H   0  0  0  0  0  0  0  0  0  0  0  0
   -7.0001   -6.4439    0.0000 H   0  0  0  0  0  0  0  0  0  0  0  0
   -6.4845   -6.6850    0.0000 H   0  0  0  0  0  0  0  0  0  0  0  0
   -6.2917   -9.1216    0.0000 H   0  0  0  0  0  0  0  0  0  0  0  0
   -5.9798  -10.5889    0.0000 H   0  0  0  0  0  0  0  0  0  0  0  0
   -3.0183  -10.1463    0.0000 H   0  0  0  0  0  0  0  0  0  0  0  0
   -5.6680  -12.0561    0.0000 H   0  0  0  0  0  0  0  0  0  0  0  0
   -2.7335  -11.4324    0.0000 H   0  0  0  0  0  0  0  0  0  0  0  0
   -2.4216  -12.8996    0.0000 H   0  0  0  0  0  0  0  0  0  0  0  0
   -5.3561  -13.5233    0.0000 H   0  0  0  0  0  0  0  0  0  0  0  0
   -5.0442  -14.9905    0.0000 H   0  0  0  0  0  0  0  0  0  0  0  0
   -2.1098  -14.3668    0.0000 H   0  0  0  0  0  0  0  0  0  0  0  0
   -1.8385  -16.6094    0.0000 H   0  0  0  0  0  0  0  0  0  0  0  0
   -4.3799  -17.1496    0.0000 H   0  0  0  0  0  0  0  0  0  0  0  0
   -2.5184   -9.7414    0.0000 H   0  0  0  0  0  0  0  0  0  0  0  0
   -0.9845   -8.3112    0.0000 H   0  0  0  0  0  0  0  0  0  0  0  0
   -0.3524   -6.5312    0.0000 H   0  0  0  0  0  0  0  0  0  0  0  0
   -0.0435   -5.4360    0.0000 H   0  0  0  0  0  0  0  0  0  0  0  0
   -3.9077   -3.2334    0.0000 H   0  0  0  0  0  0  0  0  0  0  0  0
   -3.5370   -5.4495    0.0000 H   0  0  0  0  0  0  0  0  0  0  0  0
   -1.8150   -1.3243    0.0000 H   0  0  0  0  0  0  0  0  0  0  0  0
   -3.7749   -2.6464    0.0000 H   0  0  0  0  0  0  0  0  0  0  0  0
   -0.2180   -1.8550    0.0000 H   0  0  0  0  0  0  0  0  0  0  0  0
    0.4701   -5.1743    0.0000 H   0  0  0  0  0  0  0  0  0  0  0  0
    1.2086   -2.3185    0.0000 H   0  0  0  0  0  0  0  0  0  0  0  0
    3.4278   -4.6050    0.0000 H   0  0  0  0  0  0  0  0  0  0  0  0
    2.4647   -2.7149    0.0000 H   0  0  0  0  0  0  0  0  0  0  0  0
    1.5377   -5.5681    0.0000 H   0  0  0  0  0  0  0  0  0  0  0  0
   -3.7186   -4.1945    0.0000 H   0  0  0  0  0  0  0  0  0  0  0  0
   -5.3170   -2.9276    0.0000 H   0  0  0  0  0  0  0  0  0  0  0  0
   -6.0126   -2.6401    0.0000 H   0  0  0  0  0  0  0  0  0  0  0  0
   -7.2711    0.0585    0.0000 H   0  0  0  0  0  0  0  0  0  0  0  0
   -8.3662   -0.2505    0.0000 H   0  0  0  0  0  0  0  0  0  0  0  0
   -7.4392   -3.1036    0.0000 H   0  0  0  0  0  0  0  0  0  0  0  0
   -9.6412   -3.6078    0.0000 H   0  0  0  0  0  0  0  0  0  0  0  0
   -3.2862   -0.7500    0.0000 H   0  0  0  0  0  0  0  0  0  0  0  0
   -2.0836    2.2752    0.0000 H   0  0  0  0  0  0  0  0  0  0  0  0
   -0.1302    0.0279    0.0000 H   0  0  0  0  0  0  0  0  0  0  0  0
  1  2  1  0
  2  3  1  0
  3  4  1  0
  4  5  1  0
  5  6  1  0
  6  7  1  0
  7  8  1  0
  8  9  1  0
  7 10  1  0
 10 11  1  0
 11 12  1  0
 12 13  1  0
 13 14  1  0
 13 15  1  0
 15 16  1  0
 16 17  1  0
 17 18  1  0
 18 19  1  0
 19 20  1  0
 20 21  1  0
 21 22  1  0
 22 23  1  0
 23 24  1  0
 24 25  1  0
 20 26  1  0
 26 27  1  0
 27 28  1  0
 28 29  1  0
 29 30  1  0
 30 31  1  0
 31 32  1  0
 32 33  1  0
 33 34  1  0
 28 35  1  0
 35 36  1  0
 15 37  1  0
 37 38  1  0
 38 39  1  0
 39 40  1  0
 40 41  1  0
 38 42  1  0
 42 43  1  0
 43 44  1  0
 38  4  1  0
 42  5  1  0
 12 10  1  0
 35 17  1  0
 36 19  1  0
 36 26  1  0
 36 27  1  0
 32 29  1  0
  1 45  1  0
  1 46  1  0
  1 47  1  0
  2 48  1  0
  2 49  1  0
  3 50  1  0
  3 51  1  0
  4 52  1  0
  5 53  1  0
  6 54  1  0
  6 55  1  0
  7 56  1  0
  8 57  1  0
  8 58  1  0
  9 59  1  0
  9 60  1  0
  9 61  1  0
 10 62  1  0
 11 63  1  0
 11 64  1  0
 12 65  1  0
 13 66  1  0
 14 67  1  0
 15 68  1  0
 16 69  1  0
 16 70  1  0
 17 71  1  0
 18 72  1  0
 18 73  1  0
 19 74  1  0
 20 75  1  0
 21 76  1  0
 21 77  1  0
 22 78  1  0
 22 79  1  0
 23 80  1  0
 23 81  1  0
 24 82  1  0
 24 83  1  0
 25 84  1  0
 25 85  1  0
 26 86  1  0
 27 87  1  0
 28 88  1  0
 29 89  1  0
 30 90  1  0
 30 91  1  0
 31 92  1  0
 31 93  1  0
 32 94  1  0
 33 95  1  0
 33 96  1  0
 34 97  1  0
 34 98  1  0
 34 99  1  0
 35100  1  0
 37101  1  0
 39102  1  0
 39103  1  0
 40104  1  0
 40105  1  0
 41106  1  0
 42107  1  0
 43108  1  0
 44109  1  0
M  END
$$$$
