
     RDKit          2D

 65 69  0  0  0  0  0  0  0  0999 V2000
   -3.0000   -1.4626    0.0000 C   0  0  0  0  0  0  0  0  0  0  0  0
   -2.2500   -2.7616    0.0000 C   0  0  0  0  0  0  0  0  0  0  0  0
   -1.5000   -4.0607    0.0000 N   0  0  0  0  0  0  0  0  0  0  0  0
   -0.0000   -4.0607    0.0000 C   0  0  0  0  0  0  0  0  0  0  0  0
    1.5000   -4.0607    0.0000 S   0  0  0  0  0  0  0  0  0  0  0  0
   -0.0000   -2.5607    0.0000 C   0  0  0  0  0  0  0  0  0  0  0  0
   -0.0000   -1.0607    0.0000 C   0  0  0  0  0  0  0  0  0  0  0  0
   -1.0607    0.0000    0.0000 C   0  0  0  0  0  0  0  0  0  0  0  0
   -0.0000    1.0607    0.0000 C   0  0  0  0  0  0  0  0  0  0  0  0
    1.0607    0.0000    0.0000 C   0  0  0  0  0  0  0  0  0  0  0  0
    1.5000    1.5374    0.0000 C   0  0  0  0  0  0  0  0  0  0  0  0
    1.2395    3.0146    0.0000 C   0  0  0  0  0  0  0  0  0  0  0  0
    2.7167    3.2751    0.0000 O   0  0  0  0  0  0  0  0  0  0  0  0
   -0.2377    2.7542    0.0000 O   0  0  0  0  0  0  0  0  0  0  0  0
    2.2500    0.2384    0.0000 C   0  0  0  0  0  0  0  0  0  0  0  0
    1.5000   -1.0607    0.0000 N   0  0  0  0  0  0  0  0  0  0  0  0
    2.2500   -2.3597    0.0000 C   0  0  0  0  0  0  0  0  0  0  0  0
    0.0000   -5.5607    0.0000 C   0  0  0  0  0  0  0  0  0  0  0  0
    1.4772   -5.8211    0.0000 C   0  0  0  0  0  0  0  0  0  0  0  0
    1.2167   -7.2983    0.0000 C   0  0  0  0  0  0  0  0  0  0  0  0
    2.6940   -7.5588    0.0000 C   0  0  0  0  0  0  0  0  0  0  0  0
    4.1712   -7.8193    0.0000 C   0  0  0  0  0  0  0  0  0  0  0  0
    4.4316   -6.3421    0.0000 C   0  0  0  0  0  0  0  0  0  0  0  0
    2.9544   -6.0816    0.0000 C   0  0  0  0  0  0  0  0  0  0  0  0
   -0.5130   -6.9702    0.0000 C   0  0  0  0  0  0  0  0  0  0  0  0
   -1.4772   -5.8211    0.0000 C   0  0  0  0  0  0  0  0  0  0  0  0
   -1.9902   -4.4116    0.0000 C   0  0  0  0  0  0  0  0  0  0  0  0
   -4.2990   -2.2126    0.0000 H   0  0  0  0  0  0  0  0  0  0  0  0
   -1.6192   -0.8765    0.0000 H   0  0  0  0  0  0  0  0  0  0  0  0
   -3.7500   -0.1635    0.0000 H   0  0  0  0  0  0  0  0  0  0  0  0
   -3.5490   -3.5116    0.0000 H   0  0  0  0  0  0  0  0  0  0  0  0
   -1.0521   -1.8589    0.0000 H   0  0  0  0  0  0  0  0  0  0  0  0
   -2.2500   -5.3597    0.0000 H   0  0  0  0  0  0  0  0  0  0  0  0
    2.2500   -5.3597    0.0000 H   0  0  0  0  0  0  0  0  0  0  0  0
   -1.4003   -2.0230    0.0000 H   0  0  0  0  0  0  0  0  0  0  0  0
    1.4003   -3.0983    0.0000 H   0  0  0  0  0  0  0  0  0  0  0  0
   -2.1213    1.0607    0.0000 H   0  0  0  0  0  0  0  0  0  0  0  0
   -1.9841   -1.1820    0.0000 H   0  0  0  0  0  0  0  0  0  0  0  0
   -0.3630    2.5161    0.0000 H   0  0  0  0  0  0  0  0  0  0  0  0
    2.3465   -0.7725    0.0000 H   0  0  0  0  0  0  0  0  0  0  0  0
    2.3465    0.7725    0.0000 H   0  0  0  0  0  0  0  0  0  0  0  0
    2.9095    2.0504    0.0000 H   0  0  0  0  0  0  0  0  0  0  0  0
    0.9791    4.4918    0.0000 H   0  0  0  0  0  0  0  0  0  0  0  0
    3.2298    4.6846    0.0000 H   0  0  0  0  0  0  0  0  0  0  0  0
   -1.2019    3.9032    0.0000 H   0  0  0  0  0  0  0  0  0  0  0  0
    3.5080   -0.5785    0.0000 H   0  0  0  0  0  0  0  0  0  0  0  0
    3.3991    1.2026    0.0000 H   0  0  0  0  0  0  0  0  0  0  0  0
    3.6308   -1.7736    0.0000 H   0  0  0  0  0  0  0  0  0  0  0  0
    1.0521   -3.2625    0.0000 H   0  0  0  0  0  0  0  0  0  0  0  0
    3.0000   -3.6587    0.0000 H   0  0  0  0  0  0  0  0  0  0  0  0
    1.7635   -7.2936    0.0000 H   0  0  0  0  0  0  0  0  0  0  0  0
    0.9563   -8.7756    0.0000 H   0  0  0  0  0  0  0  0  0  0  0  0
   -0.2796   -7.4031    0.0000 H   0  0  0  0  0  0  0  0  0  0  0  0
    2.4335   -9.0360    0.0000 H   0  0  0  0  0  0  0  0  0  0  0  0
    5.6484   -8.0798    0.0000 H   0  0  0  0  0  0  0  0  0  0  0  0
    3.9107   -9.2965    0.0000 H   0  0  0  0  0  0  0  0  0  0  0  0
    4.6921   -4.8649    0.0000 H   0  0  0  0  0  0  0  0  0  0  0  0
    5.9088   -6.6025    0.0000 H   0  0  0  0  0  0  0  0  0  0  0  0
    3.2149   -4.6044    0.0000 H   0  0  0  0  0  0  0  0  0  0  0  0
    0.4309   -8.1360    0.0000 H   0  0  0  0  0  0  0  0  0  0  0  0
   -1.4772   -8.1193    0.0000 H   0  0  0  0  0  0  0  0  0  0  0  0
   -2.7762   -6.5711    0.0000 H   0  0  0  0  0  0  0  0  0  0  0  0
   -3.3998   -4.9246    0.0000 H   0  0  0  0  0  0  0  0  0  0  0  0
   -0.7467   -3.5727    0.0000 H   0  0  0  0  0  0  0  0  0  0  0  0
   -2.8291   -3.1681    0.0000 H   0  0  0  0  0  0  0  0  0  0  0  0
  1  2  1  0
  2  3  1  0
  3  4  1  0
  4  5  1  6
  4  6  1  0
  7  6  1  6
  7  8  1  0
  8  9  1  0
  9 10  1  0
  9 11  1  0
 11 12  1  0
 12 13  1  0
 12 14  1  0
 11 15  1  0
 15 16  1  0
 16 17  1  0
  4 18  1  0
 18 19  1  0
 19 20  1  0
 20 21  1  0
 21 22  1  0
 22 23  1  0
 23 24  1  0
 18 25  1  6
 25 26  1  0
 26 27  1  0
 10  7  1  0
 26 18  1  0
 16  7  1  0
 24 19  1  0
 24 21  1  0
  1 28  1  0
  1 29  1  0
  1 30  1  0
  2 31  1  0
  2 32  1  0
  3 33  1  0
  5 34  1  0
  6 35  1  0
  6 36  1  0
  8 37  1  0
  8 38  1  0
  9 39  1  6
 10 40  1  0
 10 41  1  0
 11 42  1  6
 12 43  1  0
 13 44  1  0
 14 45  1  0
 15 46  1  0
 15 47  1  0
 17 48  1  0
 17 49  1  0
 17 50  1  0
 19 51  1  1
 20 52  1  0
 20 53  1  0
 21 54  1  6
 22 55  1  0
 22 56  1  0
 23 57  1  0
 23 58  1  0
 24 59  1  6
 25 60  1  0
 25 61  1  0
 26 62  1  6
 27 63  1  0
 27 64  1  0
 27 65  1  0
M  END
$$$$
