
     RDKit          2D

 59 59  0  0  0  0  0  0  0  0999 V2000
    6.5915    5.5249    0.0000 C   0  0  0  0  0  0  0  0  0  0  0  0
    6.9034    4.0577    0.0000 C   0  0  0  0  0  0  0  0  0  0  0  0
    7.2152    2.5905    0.0000 C   0  0  0  0  0  0  0  0  0  0  0  0
    7.5271    1.1233    0.0000 C   0  0  0  0  0  0  0  0  0  0  0  0
    7.8390   -0.3440    0.0000 C   0  0  0  0  0  0  0  0  0  0  0  0
    8.1508   -1.8112    0.0000 N   0  0  0  0  0  0  0  0  0  0  0  0
    5.7480    2.2786    0.0000 C   0  0  0  0  0  0  0  0  0  0  0  0
    4.2808    1.9668    0.0000 N   0  0  0  0  0  0  0  0  0  0  0  0
    3.2771    3.0815    0.0000 C   0  0  0  0  0  0  0  0  0  0  0  0
    3.8173    0.5402    0.0000 C   0  0  0  0  0  0  0  0  0  0  0  0
    3.3538   -0.8864    0.0000 C   0  0  0  0  0  0  0  0  0  0  0  0
    2.8902   -2.3130    0.0000 C   0  0  0  0  0  0  0  0  0  0  0  0
    2.3907    1.0037    0.0000 O   0  0  0  0  0  0  0  0  0  0  0  0
    1.2760    0.0000    0.0000 C   0  0  0  0  0  0  0  0  0  0  0  0
    2.3907   -1.0037    0.0000 C   0  0  0  0  0  0  0  0  0  0  0  0
    3.1874   -1.0316    0.0000 O   0  0  0  0  0  0  0  0  0  0  0  0
    1.7806   -2.3740    0.0000 O   0  0  0  0  0  0  0  0  0  0  0  0
    0.2888   -2.2172    0.0000 O   0  0  0  0  0  0  0  0  0  0  0  0
   -0.0231   -0.7500    0.0000 C   0  0  0  0  0  0  0  0  0  0  0  0
   -0.6332    0.6203    0.0000 C   0  0  0  0  0  0  0  0  0  0  0  0
   -1.2433    1.9906    0.0000 C   0  0  0  0  0  0  0  0  0  0  0  0
   -1.8534    3.3610    0.0000 C   0  0  0  0  0  0  0  0  0  0  0  0
   -2.4635    4.7313    0.0000 C   0  0  0  0  0  0  0  0  0  0  0  0
   -3.9553    4.8881    0.0000 C   0  0  0  0  0  0  0  0  0  0  0  0
   -1.5818    5.9448    0.0000 S   0  0  0  0  0  0  0  0  0  0  0  0
    6.2796    6.9922    0.0000 H   0  0  0  0  0  0  0  0  0  0  0  0
    8.0587    5.8368    0.0000 H   0  0  0  0  0  0  0  0  0  0  0  0
    5.1243    5.2131    0.0000 H   0  0  0  0  0  0  0  0  0  0  0  0
    5.4091    3.9270    0.0000 H   0  0  0  0  0  0  0  0  0  0  0  0
    8.3706    4.3696    0.0000 H   0  0  0  0  0  0  0  0  0  0  0  0
    8.6825    2.9024    0.0000 H   0  0  0  0  0  0  0  0  0  0  0  0
    8.9943    1.4351    0.0000 H   0  0  0  0  0  0  0  0  0  0  0  0
    6.1088    0.6349    0.0000 H   0  0  0  0  0  0  0  0  0  0  0  0
    9.3062   -0.0321    0.0000 H   0  0  0  0  0  0  0  0  0  0  0  0
    6.3718   -0.6558    0.0000 H   0  0  0  0  0  0  0  0  0  0  0  0
    9.5774   -2.2747    0.0000 H   0  0  0  0  0  0  0  0  0  0  0  0
    7.0361   -2.8149    0.0000 H   0  0  0  0  0  0  0  0  0  0  0  0
    5.8787    0.7843    0.0000 H   0  0  0  0  0  0  0  0  0  0  0  0
    5.2596    3.6969    0.0000 H   0  0  0  0  0  0  0  0  0  0  0  0
    2.2734    4.1962    0.0000 H   0  0  0  0  0  0  0  0  0  0  0  0
    4.3918    4.0852    0.0000 H   0  0  0  0  0  0  0  0  0  0  0  0
    2.1624    2.0778    0.0000 H   0  0  0  0  0  0  0  0  0  0  0  0
    5.2439    0.0766    0.0000 H   0  0  0  0  0  0  0  0  0  0  0  0
    4.7803   -1.3499    0.0000 H   0  0  0  0  0  0  0  0  0  0  0  0
    1.8766   -1.1470    0.0000 H   0  0  0  0  0  0  0  0  0  0  0  0
    2.4267   -3.7396    0.0000 H   0  0  0  0  0  0  0  0  0  0  0  0
    4.3168   -2.7765    0.0000 H   0  0  0  0  0  0  0  0  0  0  0  0
    1.3939   -2.2084    0.0000 H   0  0  0  0  0  0  0  0  0  0  0  0
    0.5488    1.3119    0.0000 H   0  0  0  0  0  0  0  0  0  0  0  0
   -1.4496   -1.2135    0.0000 H   0  0  0  0  0  0  0  0  0  0  0  0
   -2.0035    0.0102    0.0000 H   0  0  0  0  0  0  0  0  0  0  0  0
    0.6526    1.3929    0.0000 H   0  0  0  0  0  0  0  0  0  0  0  0
   -2.6136    1.3805    0.0000 H   0  0  0  0  0  0  0  0  0  0  0  0
    0.1270    2.6007    0.0000 H   0  0  0  0  0  0  0  0  0  0  0  0
   -0.4831    3.9711    0.0000 H   0  0  0  0  0  0  0  0  0  0  0  0
   -3.2237    2.7508    0.0000 H   0  0  0  0  0  0  0  0  0  0  0  0
   -5.4470    5.0449    0.0000 H   0  0  0  0  0  0  0  0  0  0  0  0
   -3.7985    6.3798    0.0000 H   0  0  0  0  0  0  0  0  0  0  0  0
   -4.1121    3.3963    0.0000 H   0  0  0  0  0  0  0  0  0  0  0  0
  1  2  1  0
  2  3  1  0
  3  4  1  0
  4  5  1  0
  5  6  1  0
  3  7  1  0
  7  8  1  0
  8  9  1  0
  8 10  1  0
 10 11  1  0
 11 12  1  0
 10 13  1  0
 13 14  1  0
 14 15  1  0
 15 16  2  0
 15 17  1  0
 17 18  1  0
 18 19  1  0
 19 20  1  0
 20 21  1  0
 21 22  1  0
 22 23  1  0
 23 24  1  0
 23 25  2  0
 19 14  1  0
  1 26  1  0
  1 27  1  0
  1 28  1  0
  2 29  1  0
  2 30  1  0
  3 31  1  0
  4 32  1  0
  4 33  1  0
  5 34  1  0
  5 35  1  0
  6 36  1  0
  6 37  1  0
  7 38  1  0
  7 39  1  0
  9 40  1  0
  9 41  1  0
  9 42  1  0
 10 43  1  0
 11 44  1  0
 11 45  1  0
 12 46  1  0
 12 47  1  0
 12 48  1  0
 14 49  1  0
 19 50  1  0
 20 51  1  0
 20 52  1  0
 21 53  1  0
 21 54  1  0
 22 55  1  0
 22 56  1  0
 24 57  1  0
 24 58  1  0
 24 59  1  0
M  END
$$$$
