
     RDKit          2D

 64 69  0  0  0  0  0  0  0  0999 V2000
    4.8991  -10.0574    0.0000 N   0  0  0  0  0  0  0  0  0  0  0  0
    4.1491   -8.7584    0.0000 C   0  0  0  0  0  0  0  0  0  0  0  0
    3.3991   -7.4594    0.0000 C   0  0  0  0  0  0  0  0  0  0  0  0
    2.6491   -6.1603    0.0000 N   0  0  0  0  0  0  0  0  0  0  0  0
    3.3991   -4.8613    0.0000 C   0  0  0  0  0  0  0  0  0  0  0  0
    2.2500   -3.8971    0.0000 C   0  0  0  0  0  0  0  0  0  0  0  0
    1.5000   -2.5981    0.0000 C   0  0  0  0  0  0  0  0  0  0  0  0
    0.7500   -1.2990    0.0000 C   0  0  0  0  0  0  0  0  0  0  0  0
    1.5000    0.0000    0.0000 C   0  0  0  0  0  0  0  0  0  0  0  0
    0.7500    1.2990    0.0000 C   0  0  0  0  0  0  0  0  0  0  0  0
   -0.7500    1.2990    0.0000 C   0  0  0  0  0  0  0  0  0  0  0  0
   -1.5000   -0.0000    0.0000 C   0  0  0  0  0  0  0  0  0  0  0  0
   -0.7500   -1.2990    0.0000 C   0  0  0  0  0  0  0  0  0  0  0  0
   -1.5000   -2.5981    0.0000 C   0  0  0  0  0  0  0  0  0  0  0  0
   -2.2500   -3.8971    0.0000 C   0  0  0  0  0  0  0  0  0  0  0  0
   -3.0000   -5.1962    0.0000 O   0  0  0  0  0  0  0  0  0  0  0  0
    3.6595   -3.3841    0.0000 C   0  0  0  0  0  0  0  0  0  0  0  0
    5.1595   -3.3841    0.0000 C   0  0  0  0  0  0  0  0  0  0  0  0
    6.6595   -3.3841    0.0000 C   0  0  0  0  0  0  0  0  0  0  0  0
    6.9200   -1.9069    0.0000 C   0  0  0  0  0  0  0  0  0  0  0  0
    7.1805   -0.4297    0.0000 C   0  0  0  0  0  0  0  0  0  0  0  0
    6.0314    0.5345    0.0000 O   0  0  0  0  0  0  0  0  0  0  0  0
    8.5900    0.0834    0.0000 O   0  0  0  0  0  0  0  0  0  0  0  0
    8.8505    1.5606    0.0000 C   0  0  0  0  0  0  0  0  0  0  0  0
   10.3505    1.5606    0.0000 C   0  0  0  0  0  0  0  0  0  0  0  0
   11.1005    2.8596    0.0000 C   0  0  0  0  0  0  0  0  0  0  0  0
   10.3505    4.1587    0.0000 C   0  0  0  0  0  0  0  0  0  0  0  0
    9.6005    2.8596    0.0000 C   0  0  0  0  0  0  0  0  0  0  0  0
    8.0691   -3.8971    0.0000 C   0  0  0  0  0  0  0  0  0  0  0  0
    6.9200   -4.8613    0.0000 C   0  0  0  0  0  0  0  0  0  0  0  0
    4.1491  -11.3565    0.0000 H   0  0  0  0  0  0  0  0  0  0  0  0
    6.3991  -10.0574    0.0000 H   0  0  0  0  0  0  0  0  0  0  0  0
    5.4481   -8.0084    0.0000 H   0  0  0  0  0  0  0  0  0  0  0  0
    2.8500   -9.5084    0.0000 H   0  0  0  0  0  0  0  0  0  0  0  0
    4.6981   -6.7094    0.0000 H   0  0  0  0  0  0  0  0  0  0  0  0
    2.1000   -8.2094    0.0000 H   0  0  0  0  0  0  0  0  0  0  0  0
    1.1491   -6.1603    0.0000 H   0  0  0  0  0  0  0  0  0  0  0  0
    4.6426   -5.7002    0.0000 H   0  0  0  0  0  0  0  0  0  0  0  0
    1.1009   -4.8613    0.0000 H   0  0  0  0  0  0  0  0  0  0  0  0
    0.5297   -3.3293    0.0000 H   0  0  0  0  0  0  0  0  0  0  0  0
    2.5781   -1.7856    0.0000 H   0  0  0  0  0  0  0  0  0  0  0  0
    3.0000    0.0000    0.0000 H   0  0  0  0  0  0  0  0  0  0  0  0
    1.5000    2.5981    0.0000 H   0  0  0  0  0  0  0  0  0  0  0  0
   -1.5000    2.5981    0.0000 H   0  0  0  0  0  0  0  0  0  0  0  0
   -3.0000   -0.0000    0.0000 H   0  0  0  0  0  0  0  0  0  0  0  0
   -0.5297   -3.3293    0.0000 H   0  0  0  0  0  0  0  0  0  0  0  0
   -2.7990   -1.8481    0.0000 H   0  0  0  0  0  0  0  0  0  0  0  0
   -0.9510   -4.6471    0.0000 H   0  0  0  0  0  0  0  0  0  0  0  0
   -3.5490   -3.1471    0.0000 H   0  0  0  0  0  0  0  0  0  0  0  0
   -4.5000   -5.1962    0.0000 H   0  0  0  0  0  0  0  0  0  0  0  0
    3.5889   -2.0359    0.0000 H   0  0  0  0  0  0  0  0  0  0  0  0
    5.0114   -2.1781    0.0000 H   0  0  0  0  0  0  0  0  0  0  0  0
    5.1595   -4.8841    0.0000 H   0  0  0  0  0  0  0  0  0  0  0  0
    5.7581   -1.5516    0.0000 H   0  0  0  0  0  0  0  0  0  0  0  0
    8.2682   -1.9775    0.0000 H   0  0  0  0  0  0  0  0  0  0  0  0
    7.4410    2.0736    0.0000 H   0  0  0  0  0  0  0  0  0  0  0  0
   11.1005    0.2615    0.0000 H   0  0  0  0  0  0  0  0  0  0  0  0
   12.6005    2.8596    0.0000 H   0  0  0  0  0  0  0  0  0  0  0  0
   11.4996    5.1228    0.0000 H   0  0  0  0  0  0  0  0  0  0  0  0
    9.2014    5.1228    0.0000 H   0  0  0  0  0  0  0  0  0  0  0  0
    8.8816   -2.8190    0.0000 H   0  0  0  0  0  0  0  0  0  0  0  0
    9.2181   -4.8613    0.0000 H   0  0  0  0  0  0  0  0  0  0  0  0
    7.6700   -6.1603    0.0000 H   0  0  0  0  0  0  0  0  0  0  0  0
    5.6765   -5.7002    0.0000 H   0  0  0  0  0  0  0  0  0  0  0  0
  1  2  1  0
  2  3  1  0
  3  4  1  0
  4  5  1  0
  5  6  1  0
  6  7  1  0
  7  8  1  0
  8  9  2  0
  9 10  1  0
 10 11  2  0
 11 12  1  0
 12 13  2  0
 13 14  1  0
 14 15  1  0
 15 16  1  0
  6 17  1  0
 17 18  1  0
 18 19  1  0
 19 20  1  0
 20 21  1  0
 21 22  2  0
 21 23  1  0
 23 24  1  0
 24 25  1  0
 25 26  1  0
 26 27  1  0
 27 28  1  0
 19 29  1  0
 29 30  1  0
 17  5  1  0
 30 19  1  0
 13  8  1  0
 28 24  1  0
 28 25  1  0
 28 26  1  0
  1 31  1  0
  1 32  1  0
  2 33  1  0
  2 34  1  0
  3 35  1  0
  3 36  1  0
  4 37  1  0
  5 38  1  0
  6 39  1  0
  7 40  1  0
  7 41  1  0
  9 42  1  0
 10 43  1  0
 11 44  1  0
 12 45  1  0
 14 46  1  0
 14 47  1  0
 15 48  1  0
 15 49  1  0
 16 50  1  0
 17 51  1  0
 18 52  1  0
 18 53  1  0
 20 54  1  0
 20 55  1  0
 24 56  1  0
 25 57  1  0
 26 58  1  0
 27 59  1  0
 27 60  1  0
 29 61  1  0
 29 62  1  0
 30 63  1  0
 30 64  1  0
M  END
$$$$
