
     RDKit          2D

 80 82  0  0  0  0  0  0  0  0999 V2000
   11.4365   10.0105    0.0000 C   0  0  0  0  0  0  0  0  0  0  0  0
   10.1375    9.2605    0.0000 C   0  0  0  0  0  0  0  0  0  0  0  0
    8.8384    8.5105    0.0000 C   0  0  0  0  0  0  0  0  0  0  0  0
    7.5394    7.7605    0.0000 C   0  0  0  0  0  0  0  0  0  0  0  0
    6.7894    9.0595    0.0000 O   0  0  0  0  0  0  0  0  0  0  0  0
    6.2404    7.0105    0.0000 C   0  0  0  0  0  0  0  0  0  0  0  0
    4.9413    6.2605    0.0000 C   0  0  0  0  0  0  0  0  0  0  0  0
    3.6423    5.5105    0.0000 C   0  0  0  0  0  0  0  0  0  0  0  0
    2.3432    4.7605    0.0000 C   0  0  0  0  0  0  0  0  0  0  0  0
    1.3791    5.9095    0.0000 C   0  0  0  0  0  0  0  0  0  0  0  0
    0.8660    4.5000    0.0000 C   0  0  0  0  0  0  0  0  0  0  0  0
    0.8660    3.0000    0.0000 O   0  0  0  0  0  0  0  0  0  0  0  0
   -0.4330    2.2500    0.0000 O   0  0  0  0  0  0  0  0  0  0  0  0
   -0.4330    0.7500    0.0000 C   0  0  0  0  0  0  0  0  0  0  0  0
    0.8660    0.0000    0.0000 C   0  0  0  0  0  0  0  0  0  0  0  0
   -0.4330   -0.7500    0.0000 C   0  0  0  0  0  0  0  0  0  0  0  0
   -1.7321    0.0000    0.0000 C   0  0  0  0  0  0  0  0  0  0  0  0
   -2.6962   -1.1491    0.0000 C   0  0  0  0  0  0  0  0  0  0  0  0
   -3.6604   -2.2981    0.0000 C   0  0  0  0  0  0  0  0  0  0  0  0
   -4.6246   -3.4472    0.0000 C   0  0  0  0  0  0  0  0  0  0  0  0
   -5.5888   -4.5963    0.0000 C   0  0  0  0  0  0  0  0  0  0  0  0
   -6.5530   -5.7453    0.0000 C   0  0  0  0  0  0  0  0  0  0  0  0
   -6.7378   -3.6321    0.0000 N   0  0  0  0  0  0  0  0  0  0  0  0
    4.1913    7.5595    0.0000 C   0  0  0  0  0  0  0  0  0  0  0  0
    3.4413    8.8585    0.0000 C   0  0  0  0  0  0  0  0  0  0  0  0
    2.8923    6.8095    0.0000 C   0  0  0  0  0  0  0  0  0  0  0  0
    1.5932    6.0595    0.0000 C   0  0  0  0  0  0  0  0  0  0  0  0
    0.2942    5.3095    0.0000 C   0  0  0  0  0  0  0  0  0  0  0  0
   -1.0048    4.5595    0.0000 C   0  0  0  0  0  0  0  0  0  0  0  0
   -0.4558    6.6085    0.0000 O   0  0  0  0  0  0  0  0  0  0  0  0
   -1.9558    6.6085    0.0000 C   0  0  0  0  0  0  0  0  0  0  0  0
   12.7355   10.7605    0.0000 H   0  0  0  0  0  0  0  0  0  0  0  0
   10.6865   11.3095    0.0000 H   0  0  0  0  0  0  0  0  0  0  0  0
   12.1865    8.7114    0.0000 H   0  0  0  0  0  0  0  0  0  0  0  0
    9.3875   10.5595    0.0000 H   0  0  0  0  0  0  0  0  0  0  0  0
   10.8875    7.9614    0.0000 H   0  0  0  0  0  0  0  0  0  0  0  0
    9.5884    7.2114    0.0000 H   0  0  0  0  0  0  0  0  0  0  0  0
    8.2524    9.8912    0.0000 H   0  0  0  0  0  0  0  0  0  0  0  0
    8.2894    6.4614    0.0000 H   0  0  0  0  0  0  0  0  0  0  0  0
    7.3754   10.4403    0.0000 H   0  0  0  0  0  0  0  0  0  0  0  0
    6.9904    5.7114    0.0000 H   0  0  0  0  0  0  0  0  0  0  0  0
    5.6543    8.3912    0.0000 H   0  0  0  0  0  0  0  0  0  0  0  0
    5.6913    4.9614    0.0000 H   0  0  0  0  0  0  0  0  0  0  0  0
    2.7395    6.7084    0.0000 H   0  0  0  0  0  0  0  0  0  0  0  0
    4.3923    4.2114    0.0000 H   0  0  0  0  0  0  0  0  0  0  0  0
    2.8563    3.3509    0.0000 H   0  0  0  0  0  0  0  0  0  0  0  0
    0.3001    6.9516    0.0000 H   0  0  0  0  0  0  0  0  0  0  0  0
    1.8673    7.3279    0.0000 H   0  0  0  0  0  0  0  0  0  0  0  0
   -0.6303    4.3953    0.0000 H   0  0  0  0  0  0  0  0  0  0  0  0
    1.8302    1.1491    0.0000 H   0  0  0  0  0  0  0  0  0  0  0  0
    1.8302   -1.1491    0.0000 H   0  0  0  0  0  0  0  0  0  0  0  0
   -0.4330   -2.2500    0.0000 H   0  0  0  0  0  0  0  0  0  0  0  0
   -2.6962    1.1491    0.0000 H   0  0  0  0  0  0  0  0  0  0  0  0
   -3.8453   -0.1849    0.0000 H   0  0  0  0  0  0  0  0  0  0  0  0
   -1.5472   -2.1132    0.0000 H   0  0  0  0  0  0  0  0  0  0  0  0
   -4.8095   -1.3340    0.0000 H   0  0  0  0  0  0  0  0  0  0  0  0
   -2.5113   -3.2623    0.0000 H   0  0  0  0  0  0  0  0  0  0  0  0
   -3.4755   -4.4114    0.0000 H   0  0  0  0  0  0  0  0  0  0  0  0
   -5.6476   -2.3501    0.0000 H   0  0  0  0  0  0  0  0  0  0  0  0
   -4.4397   -5.5604    0.0000 H   0  0  0  0  0  0  0  0  0  0  0  0
   -7.5171   -6.8944    0.0000 H   0  0  0  0  0  0  0  0  0  0  0  0
   -5.4039   -6.7095    0.0000 H   0  0  0  0  0  0  0  0  0  0  0  0
   -7.8110   -4.9284    0.0000 H   0  0  0  0  0  0  0  0  0  0  0  0
   -8.1994   -3.9695    0.0000 H   0  0  0  0  0  0  0  0  0  0  0  0
   -6.6594   -2.1341    0.0000 H   0  0  0  0  0  0  0  0  0  0  0  0
    5.3892    8.4623    0.0000 H   0  0  0  0  0  0  0  0  0  0  0  0
    2.6913   10.1576    0.0000 H   0  0  0  0  0  0  0  0  0  0  0  0
    2.0605    8.2725    0.0000 H   0  0  0  0  0  0  0  0  0  0  0  0
    4.7404    9.6085    0.0000 H   0  0  0  0  0  0  0  0  0  0  0  0
    1.9895    8.0074    0.0000 H   0  0  0  0  0  0  0  0  0  0  0  0
    3.3057    5.3676    0.0000 H   0  0  0  0  0  0  0  0  0  0  0  0
    0.8432    7.3585    0.0000 H   0  0  0  0  0  0  0  0  0  0  0  0
    2.0066    4.6176    0.0000 H   0  0  0  0  0  0  0  0  0  0  0  0
    0.7076    3.8676    0.0000 H   0  0  0  0  0  0  0  0  0  0  0  0
   -2.3039    3.8095    0.0000 H   0  0  0  0  0  0  0  0  0  0  0  0
   -2.1706    5.5034    0.0000 H   0  0  0  0  0  0  0  0  0  0  0  0
   -0.2548    3.2605    0.0000 H   0  0  0  0  0  0  0  0  0  0  0  0
   -3.4558    6.6085    0.0000 H   0  0  0  0  0  0  0  0  0  0  0  0
   -1.9558    8.1085    0.0000 H   0  0  0  0  0  0  0  0  0  0  0  0
   -2.1386    5.1197    0.0000 H   0  0  0  0  0  0  0  0  0  0  0  0
  1  2  1  0
  2  3  1  0
  3  4  1  0
  4  5  1  0
  4  6  1  0
  6  7  1  0
  7  8  1  0
  8  9  1  0
  9 10  1  0
 10 11  1  0
 11 12  1  0
 12 13  1  0
 14 13  1  1
 14 15  1  0
 15 16  1  0
 16 17  1  0
 17 18  1  0
 18 19  1  0
 19 20  1  0
 20 21  1  0
 21 22  1  0
 21 23  1  0
  7 24  1  0
 24 25  1  0
 24 26  1  0
 26 27  1  0
 27 28  1  0
 28 29  1  0
 28 30  1  0
 30 31  1  0
 11  9  1  0
 16 14  1  0
 17 14  1  0
  1 32  1  0
  1 33  1  0
  1 34  1  0
  2 35  1  0
  2 36  1  0
  3 37  1  0
  3 38  1  0
  4 39  1  1
  5 40  1  0
  6 41  1  0
  6 42  1  0
  7 43  1  6
  8 44  1  0
  8 45  1  0
  9 46  1  6
 10 47  1  0
 10 48  1  0
 11 49  1  6
 15 50  1  0
 15 51  1  0
 16 52  1  1
 17 53  1  6
 18 54  1  0
 18 55  1  0
 19 56  1  0
 19 57  1  0
 20 58  1  0
 20 59  1  0
 21 60  1  6
 22 61  1  0
 22 62  1  0
 22 63  1  0
 23 64  1  0
 23 65  1  0
 24 66  1  6
 25 67  1  0
 25 68  1  0
 25 69  1  0
 26 70  1  0
 26 71  1  0
 27 72  1  0
 27 73  1  0
 28 74  1  1
 29 75  1  0
 29 76  1  0
 29 77  1  0
 31 78  1  0
 31 79  1  0
 31 80  1  0
M  END
$$$$
