
     RDKit          2D

 69 73  0  0  0  0  0  0  0  0999 V2000
   -2.4532   -9.6430    0.0000 C   0  0  0  0  0  0  0  0  0  0  0  0
   -3.0012   -8.2467    0.0000 C   0  0  0  0  0  0  0  0  0  0  0  0
   -2.0660   -7.0739    0.0000 C   0  0  0  0  0  0  0  0  0  0  0  0
   -1.1307   -5.9012    0.0000 C   0  0  0  0  0  0  0  0  0  0  0  0
   -0.1955   -4.7285    0.0000 C   0  0  0  0  0  0  0  0  0  0  0  0
    0.7397   -3.5557    0.0000 C   0  0  0  0  0  0  0  0  0  0  0  0
    1.6750   -2.3830    0.0000 C   0  0  0  0  0  0  0  0  0  0  0  0
    3.1582   -2.6065    0.0000 C   0  0  0  0  0  0  0  0  0  0  0  0
   -0.4330   -2.6205    0.0000 C   0  0  0  0  0  0  0  0  0  0  0  0
   -1.6058   -1.6852    0.0000 C   0  0  0  0  0  0  0  0  0  0  0  0
   -3.0682   -1.3515    0.0000 C   0  0  0  0  0  0  0  0  0  0  0  0
   -3.7190    0.0000    0.0000 C   0  0  0  0  0  0  0  0  0  0  0  0
   -4.8917   -0.9352    0.0000 C   0  0  0  0  0  0  0  0  0  0  0  0
   -6.0645   -1.8705    0.0000 N   0  0  0  0  0  0  0  0  0  0  0  0
   -7.4608   -1.3225    0.0000 C   0  0  0  0  0  0  0  0  0  0  0  0
   -8.2429   -2.6024    0.0000 C   0  0  0  0  0  0  0  0  0  0  0  0
   -9.5603   -3.3198    0.0000 C   0  0  0  0  0  0  0  0  0  0  0  0
  -10.2776   -2.0024    0.0000 C   0  0  0  0  0  0  0  0  0  0  0  0
  -10.9950   -0.6851    0.0000 O   0  0  0  0  0  0  0  0  0  0  0  0
   -8.9603   -1.2851    0.0000 C   0  0  0  0  0  0  0  0  0  0  0  0
   -3.0682    1.3515    0.0000 C   0  0  0  0  0  0  0  0  0  0  0  0
   -1.6058    1.6852    0.0000 C   0  0  0  0  0  0  0  0  0  0  0  0
   -0.4330    0.7500    0.0000 C   0  0  0  0  0  0  0  0  0  0  0  0
    0.8660    0.0000    0.0000 C   0  0  0  0  0  0  0  0  0  0  0  0
   -0.4330   -0.7500    0.0000 C   0  0  0  0  0  0  0  0  0  0  0  0
   -2.3035   -4.9660    0.0000 C   0  0  0  0  0  0  0  0  0  0  0  0
   -3.7254   -4.4882    0.0000 C   0  0  0  0  0  0  0  0  0  0  0  0
   -3.4282   -5.9585    0.0000 C   0  0  0  0  0  0  0  0  0  0  0  0
   -3.3884  -10.8158    0.0000 H   0  0  0  0  0  0  0  0  0  0  0  0
   -0.9699   -9.8666    0.0000 H   0  0  0  0  0  0  0  0  0  0  0  0
   -4.4845   -8.0231    0.0000 H   0  0  0  0  0  0  0  0  0  0  0  0
   -0.8932   -8.0092    0.0000 H   0  0  0  0  0  0  0  0  0  0  0  0
   -2.9610   -6.6648    0.0000 H   0  0  0  0  0  0  0  0  0  0  0  0
    0.0420   -6.8364    0.0000 H   0  0  0  0  0  0  0  0  0  0  0  0
   -0.9649   -4.1148    0.0000 H   0  0  0  0  0  0  0  0  0  0  0  0
    0.9772   -5.6637    0.0000 H   0  0  0  0  0  0  0  0  0  0  0  0
    1.9125   -4.4909    0.0000 H   0  0  0  0  0  0  0  0  0  0  0  0
    1.4811   -0.8955    0.0000 H   0  0  0  0  0  0  0  0  0  0  0  0
    4.0935   -1.4338    0.0000 H   0  0  0  0  0  0  0  0  0  0  0  0
    3.7062   -4.0028    0.0000 H   0  0  0  0  0  0  0  0  0  0  0  0
    0.5022   -1.4477    0.0000 H   0  0  0  0  0  0  0  0  0  0  0  0
   -1.0661   -3.1049    0.0000 H   0  0  0  0  0  0  0  0  0  0  0  0
   -1.8524   -2.8749    0.0000 H   0  0  0  0  0  0  0  0  0  0  0  0
   -3.4311   -2.8069    0.0000 H   0  0  0  0  0  0  0  0  0  0  0  0
   -4.4790   -1.8610    0.0000 H   0  0  0  0  0  0  0  0  0  0  0  0
   -4.9970    0.7853    0.0000 H   0  0  0  0  0  0  0  0  0  0  0  0
   -5.8270    0.2375    0.0000 H   0  0  0  0  0  0  0  0  0  0  0  0
   -4.1064   -2.2132    0.0000 H   0  0  0  0  0  0  0  0  0  0  0  0
   -5.8409   -3.3537    0.0000 H   0  0  0  0  0  0  0  0  0  0  0  0
   -7.1636    0.1478    0.0000 H   0  0  0  0  0  0  0  0  0  0  0  0
   -7.2090   -3.6892    0.0000 H   0  0  0  0  0  0  0  0  0  0  0  0
  -10.8776   -4.0372    0.0000 H   0  0  0  0  0  0  0  0  0  0  0  0
   -8.8429   -4.6371    0.0000 H   0  0  0  0  0  0  0  0  0  0  0  0
  -11.5950   -2.7198    0.0000 H   0  0  0  0  0  0  0  0  0  0  0  0
  -12.4946   -0.6477    0.0000 H   0  0  0  0  0  0  0  0  0  0  0  0
   -9.3123    0.1731    0.0000 H   0  0  0  0  0  0  0  0  0  0  0  0
   -4.4790    1.8610    0.0000 H   0  0  0  0  0  0  0  0  0  0  0  0
   -3.2510    2.8403    0.0000 H   0  0  0  0  0  0  0  0  0  0  0  0
   -2.0870    3.1059    0.0000 H   0  0  0  0  0  0  0  0  0  0  0  0
   -0.4330    2.6205    0.0000 H   0  0  0  0  0  0  0  0  0  0  0  0
    0.4120    1.9894    0.0000 H   0  0  0  0  0  0  0  0  0  0  0  0
    1.8302    1.1491    0.0000 H   0  0  0  0  0  0  0  0  0  0  0  0
    1.9631   -1.0230    0.0000 H   0  0  0  0  0  0  0  0  0  0  0  0
    0.5567   -1.8771    0.0000 H   0  0  0  0  0  0  0  0  0  0  0  0
   -1.7520   -3.5710    0.0000 H   0  0  0  0  0  0  0  0  0  0  0  0
   -3.6843   -2.9888    0.0000 H   0  0  0  0  0  0  0  0  0  0  0  0
   -5.2249   -4.5256    0.0000 H   0  0  0  0  0  0  0  0  0  0  0  0
   -4.8245   -6.5065    0.0000 H   0  0  0  0  0  0  0  0  0  0  0  0
   -2.9790   -7.3897    0.0000 H   0  0  0  0  0  0  0  0  0  0  0  0
  1  2  2  3
  2  3  1  0
  3  4  1  0
  4  5  1  0
  5  6  1  0
  6  7  1  0
  7  8  2  3
  6  9  1  0
  9 10  1  0
 10 11  1  0
 11 12  1  0
 12 13  1  0
 13 14  1  0
 14 15  1  0
 15 16  1  0
 16 17  1  0
 17 18  1  0
 18 19  1  0
 18 20  1  0
 12 21  1  0
 21 22  1  0
 22 23  1  0
 23 24  1  0
 24 25  1  0
  4 26  1  0
 26 27  1  0
 27 28  1  0
 25 10  1  0
 28 26  1  0
 20 15  1  0
 25 23  1  0
 20 16  1  0
  1 29  1  0
  1 30  1  0
  2 31  1  0
  3 32  1  0
  3 33  1  0
  4 34  1  0
  5 35  1  0
  5 36  1  0
  6 37  1  0
  7 38  1  0
  8 39  1  0
  8 40  1  0
  9 41  1  0
  9 42  1  0
 10 43  1  0
 11 44  1  0
 11 45  1  0
 12 46  1  0
 13 47  1  0
 13 48  1  0
 14 49  1  0
 15 50  1  0
 16 51  1  0
 17 52  1  0
 17 53  1  0
 18 54  1  0
 19 55  1  0
 20 56  1  0
 21 57  1  0
 21 58  1  0
 22 59  1  0
 22 60  1  0
 23 61  1  0
 24 62  1  0
 24 63  1  0
 25 64  1  0
 26 65  1  0
 27 66  1  0
 27 67  1  0
 28 68  1  0
 28 69  1  0
M  END
$$$$
