
     RDKit          3D

 17 19  0  0  0  0  0  0  0  0999 V2000
   16.0069  -15.6420   -7.7182 C   0  0  0  0  0  0  0  0  0  0  0  0
   15.1314  -15.4760   -8.9966 C   0  0  0  0  0  0  0  0  0  0  0  0
   13.7516  -14.8688   -8.6590 C   0  0  0  0  0  0  0  0  0  0  0  0
   16.2233  -14.3308   -6.9560 C   0  0  0  0  0  0  0  0  0  0  0  0
   15.7575  -14.7258  -10.0158 O   0  0  0  0  0  0  0  0  0  0  0  0
   17.4297  -15.1045   -7.4716 C   0  0  0  0  0  0  0  0  0  0  0  0
   18.3101  -14.5766   -8.6485 C   0  0  0  0  0  0  0  0  0  0  0  0
   19.7785  -14.8443   -8.2420 C   0  0  0  0  0  0  0  0  0  0  0  0
   19.0615  -12.5446  -10.0579 C   0  0  0  0  0  0  0  0  0  0  0  0
   20.2381  -16.2932   -8.3882 C   0  0  0  0  0  0  0  0  0  0  0  0
   18.6866  -11.1351  -10.5369 C   0  0  0  0  0  0  0  0  0  0  0  0
   21.2264  -16.6754   -7.3876 N   0  0  0  0  0  0  0  0  0  0  0  0
   20.7518  -15.2420   -9.3626 C   0  0  0  0  0  0  0  0  0  0  0  0
   18.1428  -13.0547   -8.9272 C   0  0  0  0  0  0  0  0  0  0  0  0
   19.0100  -10.0737   -9.4755 C   0  0  0  0  0  0  0  0  0  0  0  0
   20.3812   -9.5062   -9.4796 C   0  0  0  0  0  0  0  0  0  0  0  0
   19.2919   -8.8298  -10.0709 O   0  0  0  0  0  0  0  0  0  0  0  0
  2  1  1  0
  3  2  1  0
  4  1  1  0
  5  2  1  0
  6  1  1  0
  6  4  1  0
  7  6  1  0
  8  7  1  0
 10  8  1  0
 11  9  1  0
 12 10  1  0
 13  8  1  0
 13 10  1  0
 14  7  1  0
 14  9  1  0
 15 11  1  0
 16 15  1  0
 17 15  1  0
 17 16  1  0
M  END
$$$$
