
     RDKit          2D

 86 91  0  0  0  0  0  0  0  0999 V2000
   11.0593    0.6460    0.0000 C   0  0  0  0  0  0  0  0  0  0  0  0
    9.6104    1.0342    0.0000 C   0  0  0  0  0  0  0  0  0  0  0  0
    8.1615    1.4224    0.0000 C   0  0  0  0  0  0  0  0  0  0  0  0
    6.7127    1.8107    0.0000 C   0  0  0  0  0  0  0  0  0  0  0  0
    6.3244    3.2595    0.0000 O   0  0  0  0  0  0  0  0  0  0  0  0
    5.6520    0.7500    0.0000 P   0  0  0  0  0  0  0  0  0  0  0  0
    5.6520   -0.7500    0.0000 C   0  0  0  0  0  0  0  0  0  0  0  0
    7.1520   -0.7500    0.0000 C   0  0  0  0  0  0  0  0  0  0  0  0
    4.1520   -0.7500    0.0000 C   0  0  0  0  0  0  0  0  0  0  0  0
    2.9792   -1.6852    0.0000 C   0  0  0  0  0  0  0  0  0  0  0  0
    3.1137   -3.1792    0.0000 N   0  0  0  0  0  0  0  0  0  0  0  0
    1.7344   -3.7687    0.0000 C   0  0  0  0  0  0  0  0  0  0  0  0
    0.7475   -2.6391    0.0000 C   0  0  0  0  0  0  0  0  0  0  0  0
   -0.2728   -3.7387    0.0000 P   0  0  0  0  0  0  0  0  0  0  0  0
    0.1694   -5.1721    0.0000 C   0  0  0  0  0  0  0  0  0  0  0  0
   -1.7351   -3.4049    0.0000 C   0  0  0  0  0  0  0  0  0  0  0  0
   -2.7554   -4.5045    0.0000 C   0  0  0  0  0  0  0  0  0  0  0  0
   -3.7757   -5.6041    0.0000 C   0  0  0  0  0  0  0  0  0  0  0  0
   -5.2746   -5.6602    0.0000 C   0  0  0  0  0  0  0  0  0  0  0  0
   -5.2185   -7.1591    0.0000 C   0  0  0  0  0  0  0  0  0  0  0  0
   -6.7175   -7.2152    0.0000 N   0  0  0  0  0  0  0  0  0  0  0  0
   -5.1624   -8.6581    0.0000 C   0  0  0  0  0  0  0  0  0  0  0  0
   -6.4325   -9.4561    0.0000 O   0  0  0  0  0  0  0  0  0  0  0  0
   -3.8363   -9.3590    0.0000 O   0  0  0  0  0  0  0  0  0  0  0  0
   -3.7802  -10.8579    0.0000 O   0  0  0  0  0  0  0  0  0  0  0  0
   -3.7196   -7.1030    0.0000 C   0  0  0  0  0  0  0  0  0  0  0  0
    1.5169   -1.3515    0.0000 C   0  0  0  0  0  0  0  0  0  0  0  0
    0.8660    0.0000    0.0000 C   0  0  0  0  0  0  0  0  0  0  0  0
    1.5169    1.3515    0.0000 C   0  0  0  0  0  0  0  0  0  0  0  0
    2.9792    1.6852    0.0000 C   0  0  0  0  0  0  0  0  0  0  0  0
    4.1520    0.7500    0.0000 P   0  0  0  0  0  0  0  0  0  0  0  0
   -0.4330    0.7500    0.0000 C   0  0  0  0  0  0  0  0  0  0  0  0
   -1.9330    0.7500    0.0000 C   0  0  0  0  0  0  0  0  0  0  0  0
   -3.4330    0.7500    0.0000 C   0  0  0  0  0  0  0  0  0  0  0  0
   -4.9330    0.7500    0.0000 F   0  0  0  0  0  0  0  0  0  0  0  0
   -1.9330   -0.7500    0.0000 C   0  0  0  0  0  0  0  0  0  0  0  0
   -1.9330   -2.2500    0.0000 C   0  0  0  0  0  0  0  0  0  0  0  0
   -1.9330   -3.7500    0.0000 C   0  0  0  0  0  0  0  0  0  0  0  0
   -3.4330   -2.2500    0.0000 C   0  0  0  0  0  0  0  0  0  0  0  0
   -0.4330   -0.7500    0.0000 C   0  0  0  0  0  0  0  0  0  0  0  0
   12.5082    0.2577    0.0000 H   0  0  0  0  0  0  0  0  0  0  0  0
   10.6711   -0.8029    0.0000 H   0  0  0  0  0  0  0  0  0  0  0  0
   11.4475    2.0949    0.0000 H   0  0  0  0  0  0  0  0  0  0  0  0
    9.4017   -0.4512    0.0000 H   0  0  0  0  0  0  0  0  0  0  0  0
    9.9987    2.4831    0.0000 H   0  0  0  0  0  0  0  0  0  0  0  0
    8.5498    2.8713    0.0000 H   0  0  0  0  0  0  0  0  0  0  0  0
    7.7733   -0.0265    0.0000 H   0  0  0  0  0  0  0  0  0  0  0  0
    5.6520   -2.2500    0.0000 H   0  0  0  0  0  0  0  0  0  0  0  0
    8.6408   -0.9328    0.0000 H   0  0  0  0  0  0  0  0  0  0  0  0
    7.1520   -2.2500    0.0000 H   0  0  0  0  0  0  0  0  0  0  0  0
    7.1520    0.7500    0.0000 H   0  0  0  0  0  0  0  0  0  0  0  0
    4.6474   -2.1658    0.0000 H   0  0  0  0  0  0  0  0  0  0  0  0
    2.7114   -0.2093    0.0000 H   0  0  0  0  0  0  0  0  0  0  0  0
    4.4014   -3.9485    0.0000 H   0  0  0  0  0  0  0  0  0  0  0  0
    2.4649   -5.0788    0.0000 H   0  0  0  0  0  0  0  0  0  0  0  0
    0.7532   -4.9033    0.0000 H   0  0  0  0  0  0  0  0  0  0  0  0
   -0.5534   -1.8924    0.0000 H   0  0  0  0  0  0  0  0  0  0  0  0
    0.6115   -6.6054    0.0000 H   0  0  0  0  0  0  0  0  0  0  0  0
   -1.1994   -5.7856    0.0000 H   0  0  0  0  0  0  0  0  0  0  0  0
    1.6027   -4.7299    0.0000 H   0  0  0  0  0  0  0  0  0  0  0  0
   -2.5110   -2.1211    0.0000 H   0  0  0  0  0  0  0  0  0  0  0  0
   -6.7692   -5.5331    0.0000 H   0  0  0  0  0  0  0  0  0  0  0  0
   -5.3307   -4.1612    0.0000 H   0  0  0  0  0  0  0  0  0  0  0  0
   -7.4184   -8.5414    0.0000 H   0  0  0  0  0  0  0  0  0  0  0  0
   -7.6644   -6.0519    0.0000 H   0  0  0  0  0  0  0  0  0  0  0  0
   -2.4540  -11.5588    0.0000 H   0  0  0  0  0  0  0  0  0  0  0  0
   -2.2206   -7.0469    0.0000 H   0  0  0  0  0  0  0  0  0  0  0  0
   -3.3025   -8.5439    0.0000 H   0  0  0  0  0  0  0  0  0  0  0  0
    0.0213   -1.4673    0.0000 H   0  0  0  0  0  0  0  0  0  0  0  0
    0.1061    1.8610    0.0000 H   0  0  0  0  0  0  0  0  0  0  0  0
    1.3340    2.8403    0.0000 H   0  0  0  0  0  0  0  0  0  0  0  0
    2.4980    3.1059    0.0000 H   0  0  0  0  0  0  0  0  0  0  0  0
    4.1520    2.6205    0.0000 H   0  0  0  0  0  0  0  0  0  0  0  0
   -0.2243    2.2354    0.0000 H   0  0  0  0  0  0  0  0  0  0  0  0
   -1.9330    2.2500    0.0000 H   0  0  0  0  0  0  0  0  0  0  0  0
   -3.4330    2.2500    0.0000 H   0  0  0  0  0  0  0  0  0  0  0  0
   -3.6159   -0.7388    0.0000 H   0  0  0  0  0  0  0  0  0  0  0  0
   -3.4218   -0.9328    0.0000 H   0  0  0  0  0  0  0  0  0  0  0  0
   -0.4330   -2.2500    0.0000 H   0  0  0  0  0  0  0  0  0  0  0  0
   -2.1159   -5.2388    0.0000 H   0  0  0  0  0  0  0  0  0  0  0  0
   -3.3884   -4.1130    0.0000 H   0  0  0  0  0  0  0  0  0  0  0  0
   -0.4776   -4.1130    0.0000 H   0  0  0  0  0  0  0  0  0  0  0  0
   -4.9330   -2.2500    0.0000 H   0  0  0  0  0  0  0  0  0  0  0  0
   -3.7960   -3.7054    0.0000 H   0  0  0  0  0  0  0  0  0  0  0  0
   -3.4330   -3.7500    0.0000 H   0  0  0  0  0  0  0  0  0  0  0  0
   -0.0448   -2.1989    0.0000 H   0  0  0  0  0  0  0  0  0  0  0  0
  1  2  1  0
  2  3  1  0
  3  4  1  0
  4  5  2  0
  4  6  1  0
  6  7  1  0
  7  8  1  0
  7  9  1  0
  9 10  1  0
 10 11  1  0
 11 12  1  0
 12 13  1  0
 13 14  1  0
 14 15  1  0
 14 16  1  0
 16 17  2  0
 17 18  2  0
 18 19  1  0
 19 20  1  0
 20 21  1  0
 20 22  1  0
 22 23  2  0
 22 24  1  0
 24 25  1  0
 20 26  1  0
 13 27  1  0
 27 28  1  0
 28 29  1  0
 29 30  1  0
 30 31  1  0
 28 32  1  0
 32 33  1  0
 33 34  1  0
 34 35  1  0
 33 36  1  0
 36 37  1  0
 37 38  1  0
 37 39  1  0
 36 40  1  0
 31  6  1  0
 40 32  1  0
 31  9  1  0
 27 10  1  0
 40 28  1  0
 26 18  1  0
  1 41  1  0
  1 42  1  0
  1 43  1  0
  2 44  1  0
  2 45  1  0
  3 46  1  0
  3 47  1  0
  7 48  1  0
  8 49  1  0
  8 50  1  0
  8 51  1  0
  9 52  1  0
 10 53  1  0
 11 54  1  0
 12 55  1  0
 12 56  1  0
 13 57  1  0
 15 58  1  0
 15 59  1  0
 15 60  1  0
 16 61  1  0
 19 62  1  0
 19 63  1  0
 21 64  1  0
 21 65  1  0
 25 66  1  0
 26 67  1  0
 26 68  1  0
 27 69  1  0
 29 70  1  0
 29 71  1  0
 30 72  1  0
 30 73  1  0
 32 74  1  0
 33 75  1  0
 34 76  1  0
 34 77  1  0
 36 78  1  0
 37 79  1  0
 38 80  1  0
 38 81  1  0
 38 82  1  0
 39 83  1  0
 39 84  1  0
 39 85  1  0
 40 86  1  0
M  END
$$$$
