
     RDKit          2D

100109  0  0  0  0  0  0  0  0999 V2000
   -8.3269   -9.0866    0.0000 C   0  0  0  0  0  0  0  0  0  0  0  0
   -7.0429   -8.3111    0.0000 C   0  0  0  0  0  0  0  0  0  0  0  0
   -5.7293   -9.0353    0.0000 C   0  0  0  0  0  0  0  0  0  0  0  0
   -7.0725   -6.8114    0.0000 C   0  0  0  0  0  0  0  0  0  0  0  0
   -7.1021   -5.3116    0.0000 C   0  0  0  0  0  0  0  0  0  0  0  0
   -7.1317   -3.8119    0.0000 C   0  0  0  0  0  0  0  0  0  0  0  0
   -5.6024   -5.2820    0.0000 C   0  0  0  0  0  0  0  0  0  0  0  0
   -4.1027   -5.2524    0.0000 C   0  0  0  0  0  0  0  0  0  0  0  0
   -2.7891   -5.9766    0.0000 C   0  0  0  0  0  0  0  0  0  0  0  0
   -1.3482   -5.5599    0.0000 C   0  0  0  0  0  0  0  0  0  0  0  0
   -0.6240   -4.2463    0.0000 C   0  0  0  0  0  0  0  0  0  0  0  0
    0.4574   -5.2858    0.0000 O   0  0  0  0  0  0  0  0  0  0  0  0
   -0.1946   -2.5607    0.0000 C   0  0  0  0  0  0  0  0  0  0  0  0
    0.8660   -1.5000    0.0000 C   0  0  0  0  0  0  0  0  0  0  0  0
    2.3149   -1.1118    0.0000 O   0  0  0  0  0  0  0  0  0  0  0  0
    0.8660    0.0000    0.0000 C   0  0  0  0  0  0  0  0  0  0  0  0
    2.2399   -0.6021    0.0000 C   0  0  0  0  0  0  0  0  0  0  0  0
    3.2500   -1.7110    0.0000 C   0  0  0  0  0  0  0  0  0  0  0  0
    3.0846   -0.2201    0.0000 C   0  0  0  0  0  0  0  0  0  0  0  0
    4.4513    0.3979    0.0000 C   0  0  0  0  0  0  0  0  0  0  0  0
    5.4615   -0.7109    0.0000 N   0  0  0  0  0  0  0  0  0  0  0  0
    4.7190   -2.0143    0.0000 C   0  0  0  0  0  0  0  0  0  0  0  0
    3.7218   -3.1349    0.0000 C   0  0  0  0  0  0  0  0  0  0  0  0
    3.5737   -4.6275    0.0000 C   0  0  0  0  0  0  0  0  0  0  0  0
    5.0427   -4.9308    0.0000 C   0  0  0  0  0  0  0  0  0  0  0  0
    5.2082   -6.4217    0.0000 O   0  0  0  0  0  0  0  0  0  0  0  0
    3.8415   -7.0398    0.0000 N   0  0  0  0  0  0  0  0  0  0  0  0
    2.8313   -5.9309    0.0000 C   0  0  0  0  0  0  0  0  0  0  0  0
    1.6229   -6.8196    0.0000 C   0  0  0  0  0  0  0  0  0  0  0  0
    2.8996   -7.6071    0.0000 N   0  0  0  0  0  0  0  0  0  0  0  0
    2.8560   -9.1065    0.0000 C   0  0  0  0  0  0  0  0  0  0  0  0
    0.1575   -7.1400    0.0000 O   0  0  0  0  0  0  0  0  0  0  0  0
   -1.3115   -6.8367    0.0000 N   0  0  0  0  0  0  0  0  0  0  0  0
   -2.5301   -5.9621    0.0000 C   0  0  0  0  0  0  0  0  0  0  0  0
   -3.2876   -4.6674    0.0000 C   0  0  0  0  0  0  0  0  0  0  0  0
   -4.5195   -3.8115    0.0000 C   0  0  0  0  0  0  0  0  0  0  0  0
   -3.1435   -2.9489    0.0000 C   0  0  0  0  0  0  0  0  0  0  0  0
   -1.6946   -2.5607    0.0000 C   0  0  0  0  0  0  0  0  0  0  0  0
   -2.7553   -1.5000    0.0000 C   0  0  0  0  0  0  0  0  0  0  0  0
   -4.2425   -1.3042    0.0000 N   0  0  0  0  0  0  0  0  0  0  0  0
   -2.7413    0.0000    0.0000 C   0  0  0  0  0  0  0  0  0  0  0  0
   -1.8596    1.2135    0.0000 C   0  0  0  0  0  0  0  0  0  0  0  0
   -0.4330    0.7500    0.0000 C   0  0  0  0  0  0  0  0  0  0  0  0
   -0.4330   -0.7500    0.0000 C   0  0  0  0  0  0  0  0  0  0  0  0
   -1.8596   -1.2135    0.0000 C   0  0  0  0  0  0  0  0  0  0  0  0
   -8.2973  -10.5863    0.0000 H   0  0  0  0  0  0  0  0  0  0  0  0
   -9.6405   -8.3623    0.0000 H   0  0  0  0  0  0  0  0  0  0  0  0
   -4.4157   -9.7595    0.0000 H   0  0  0  0  0  0  0  0  0  0  0  0
   -6.4535  -10.3489    0.0000 H   0  0  0  0  0  0  0  0  0  0  0  0
   -5.0051   -7.7217    0.0000 H   0  0  0  0  0  0  0  0  0  0  0  0
   -5.5804   -6.9648    0.0000 H   0  0  0  0  0  0  0  0  0  0  0  0
   -8.5722   -6.8410    0.0000 H   0  0  0  0  0  0  0  0  0  0  0  0
   -8.6018   -5.3413    0.0000 H   0  0  0  0  0  0  0  0  0  0  0  0
   -7.1613   -2.3122    0.0000 H   0  0  0  0  0  0  0  0  0  0  0  0
   -8.6314   -3.8415    0.0000 H   0  0  0  0  0  0  0  0  0  0  0  0
   -5.6320   -3.7823    0.0000 H   0  0  0  0  0  0  0  0  0  0  0  0
   -5.6320   -3.7823    0.0000 H   0  0  0  0  0  0  0  0  0  0  0  0
   -5.3902   -6.7670    0.0000 H   0  0  0  0  0  0  0  0  0  0  0  0
   -4.8040   -6.5784    0.0000 H   0  0  0  0  0  0  0  0  0  0  0  0
   -3.8286   -7.0580    0.0000 H   0  0  0  0  0  0  0  0  0  0  0  0
   -2.7074   -7.4744    0.0000 H   0  0  0  0  0  0  0  0  0  0  0  0
   -0.7830   -6.9493    0.0000 H   0  0  0  0  0  0  0  0  0  0  0  0
   -0.0222   -6.2611    0.0000 H   0  0  0  0  0  0  0  0  0  0  0  0
    0.7450   -3.6331    0.0000 H   0  0  0  0  0  0  0  0  0  0  0  0
    1.8984   -4.8691    0.0000 H   0  0  0  0  0  0  0  0  0  0  0  0
    0.5440   -3.8662    0.0000 H   0  0  0  0  0  0  0  0  0  0  0  0
    1.6160   -2.7990    0.0000 H   0  0  0  0  0  0  0  0  0  0  0  0
    2.3410    0.3880    0.0000 H   0  0  0  0  0  0  0  0  0  0  0  0
    1.9194    0.8632    0.0000 H   0  0  0  0  0  0  0  0  0  0  0  0
    3.4785    0.2439    0.0000 H   0  0  0  0  0  0  0  0  0  0  0  0
    1.6403    0.1851    0.0000 H   0  0  0  0  0  0  0  0  0  0  0  0
    2.9713    1.2756    0.0000 H   0  0  0  0  0  0  0  0  0  0  0  0
    3.6938    1.6926    0.0000 H   0  0  0  0  0  0  0  0  0  0  0  0
    5.6597    1.2866    0.0000 H   0  0  0  0  0  0  0  0  0  0  0  0
    6.9523   -0.5455    0.0000 H   0  0  0  0  0  0  0  0  0  0  0  0
    5.9377   -2.8889    0.0000 H   0  0  0  0  0  0  0  0  0  0  0  0
    5.1588   -3.5650    0.0000 H   0  0  0  0  0  0  0  0  0  0  0  0
    2.5636   -3.5187    0.0000 H   0  0  0  0  0  0  0  0  0  0  0  0
    5.3717   -3.4674    0.0000 H   0  0  0  0  0  0  0  0  0  0  0  0
    6.5427   -4.9221    0.0000 H   0  0  0  0  0  0  0  0  0  0  0  0
    3.5381   -8.5088    0.0000 H   0  0  0  0  0  0  0  0  0  0  0  0
    3.0488   -7.4150    0.0000 H   0  0  0  0  0  0  0  0  0  0  0  0
    1.1927   -8.2566    0.0000 H   0  0  0  0  0  0  0  0  0  0  0  0
    4.3529   -7.2358    0.0000 H   0  0  0  0  0  0  0  0  0  0  0  0
    2.8123  -10.6058    0.0000 H   0  0  0  0  0  0  0  0  0  0  0  0
    4.3553   -9.1501    0.0000 H   0  0  0  0  0  0  0  0  0  0  0  0
    1.3625   -9.2459    0.0000 H   0  0  0  0  0  0  0  0  0  0  0  0
   -1.9136   -8.2105    0.0000 H   0  0  0  0  0  0  0  0  0  0  0  0
   -2.7042   -7.4519    0.0000 H   0  0  0  0  0  0  0  0  0  0  0  0
   -3.9176   -6.5321    0.0000 H   0  0  0  0  0  0  0  0  0  0  0  0
   -1.7941   -4.5280    0.0000 H   0  0  0  0  0  0  0  0  0  0  0  0
   -6.1424   -3.8706    0.0000 H   0  0  0  0  0  0  0  0  0  0  0  0
   -1.3190   -4.0129    0.0000 H   0  0  0  0  0  0  0  0  0  0  0  0
   -4.8165    0.0816    0.0000 H   0  0  0  0  0  0  0  0  0  0  0  0
   -5.1556   -2.4942    0.0000 H   0  0  0  0  0  0  0  0  0  0  0  0
   -2.3231    2.6401    0.0000 H   0  0  0  0  0  0  0  0  0  0  0  0
    0.1771    2.1203    0.0000 H   0  0  0  0  0  0  0  0  0  0  0  0
   -0.1726   -2.2272    0.0000 H   0  0  0  0  0  0  0  0  0  0  0  0
   -0.9360   -2.3955    0.0000 H   0  0  0  0  0  0  0  0  0  0  0  0
   -2.9386   -2.2556    0.0000 H   0  0  0  0  0  0  0  0  0  0  0  0
  1  2  2  3
  2  3  1  0
  2  4  1  0
  4  5  1  0
  5  6  1  0
  5  7  1  0
  7  8  1  0
  8  9  1  0
  9 10  1  0
 10 11  1  0
 11 12  1  0
 11 13  1  0
 13 14  1  0
 14 15  1  0
 14 16  1  0
 16 17  1  0
 17 18  1  0
 18 19  1  0
 19 20  1  0
 20 21  1  0
 21 22  1  0
 22 23  1  0
 23 24  1  0
 24 25  1  0
 25 26  1  0
 26 27  1  0
 27 28  1  0
 28 29  1  0
 29 30  1  0
 30 31  1  0
 29 32  1  0
 32 33  1  0
 33 34  1  0
 34 35  1  0
 35 36  1  0
 36 37  1  0
 37 38  1  0
 38 39  1  0
 39 40  1  0
 39 41  1  0
 41 42  2  0
 42 43  1  0
 43 44  1  0
 44 45  1  0
 36  8  1  0
 39 37  1  0
 45 41  1  0
 38 13  1  0
 43 16  1  0
 44 16  1  0
 22 18  1  0
 28 24  1  0
 37 35  1  0
 23 18  1  0
  1 46  1  0
  1 47  1  0
  3 48  1  0
  3 49  1  0
  3 50  1  0
  4 51  1  0
  4 52  1  0
  5 53  1  0
  6 54  1  0
  6 55  1  0
  6 56  1  0
  7 57  1  0
  7 58  1  0
  8 59  1  0
  9 60  1  0
  9 61  1  0
 10 62  1  0
 10 63  1  0
 11 64  1  0
 12 65  1  0
 13 66  1  0
 14 67  1  0
 15 68  1  0
 17 69  1  0
 17 70  1  0
 19 71  1  0
 19 72  1  0
 20 73  1  0
 20 74  1  0
 21 75  1  0
 22 76  1  0
 23 77  1  0
 24 78  1  0
 25 79  1  0
 25 80  1  0
 27 81  1  0
 28 82  1  0
 29 83  1  0
 30 84  1  0
 31 85  1  0
 31 86  1  0
 31 87  1  0
 33 88  1  0
 34 89  1  0
 34 90  1  0
 35 91  1  0
 36 92  1  0
 38 93  1  0
 40 94  1  0
 40 95  1  0
 42 96  1  0
 43 97  1  0
 44 98  1  0
 45 99  1  0
 45100  1  0
M  END
$$$$
