
     RDKit          2D

 86 91  0  0  0  0  0  0  0  0999 V2000
   -2.1248    6.4780    0.0000 C   0  0  0  0  0  0  0  0  0  0  0  0
   -1.4672    5.1298    0.0000 C   0  0  0  0  0  0  0  0  0  0  0  0
   -0.8096    3.7816    0.0000 C   0  0  0  0  0  0  0  0  0  0  0  0
   -0.1521    2.4334    0.0000 C   0  0  0  0  0  0  0  0  0  0  0  0
   -2.1578    3.1240    0.0000 C   0  0  0  0  0  0  0  0  0  0  0  0
   -1.0431    2.1203    0.0000 C   0  0  0  0  0  0  0  0  0  0  0  0
   -0.4330    0.7500    0.0000 C   0  0  0  0  0  0  0  0  0  0  0  0
    0.8660    0.0000    0.0000 C   0  0  0  0  0  0  0  0  0  0  0  0
    1.8302    1.1491    0.0000 O   0  0  0  0  0  0  0  0  0  0  0  0
   -0.4330   -0.7500    0.0000 C   0  0  0  0  0  0  0  0  0  0  0  0
   -1.0431   -2.1203    0.0000 C   0  0  0  0  0  0  0  0  0  0  0  0
    0.1704   -3.0020    0.0000 O   0  0  0  0  0  0  0  0  0  0  0  0
   -2.1578   -3.1240    0.0000 C   0  0  0  0  0  0  0  0  0  0  0  0
   -3.5844   -3.5875    0.0000 C   0  0  0  0  0  0  0  0  0  0  0  0
   -5.0762   -3.4307    0.0000 C   0  0  0  0  0  0  0  0  0  0  0  0
   -6.3752   -2.6807    0.0000 O   0  0  0  0  0  0  0  0  0  0  0  0
   -7.2569   -1.4672    0.0000 C   0  0  0  0  0  0  0  0  0  0  0  0
   -8.7341   -1.2067    0.0000 C   0  0  0  0  0  0  0  0  0  0  0  0
  -10.2113   -0.9463    0.0000 C   0  0  0  0  0  0  0  0  0  0  0  0
  -11.6021   -0.3844    0.0000 C   0  0  0  0  0  0  0  0  0  0  0  0
  -12.5663   -1.5334    0.0000 C   0  0  0  0  0  0  0  0  0  0  0  0
  -11.7714   -2.8055    0.0000 C   0  0  0  0  0  0  0  0  0  0  0  0
  -10.3160   -2.4426    0.0000 C   0  0  0  0  0  0  0  0  0  0  0  0
   -9.8029   -3.8522    0.0000 C   0  0  0  0  0  0  0  0  0  0  0  0
   -8.8388   -2.7031    0.0000 C   0  0  0  0  0  0  0  0  0  0  0  0
   -7.5397   -3.4531    0.0000 C   0  0  0  0  0  0  0  0  0  0  0  0
   -7.5688    0.0000    0.0000 C   0  0  0  0  0  0  0  0  0  0  0  0
   -7.2569    1.4672    0.0000 C   0  0  0  0  0  0  0  0  0  0  0  0
   -6.3752    2.6807    0.0000 C   0  0  0  0  0  0  0  0  0  0  0  0
   -6.5840    4.1661    0.0000 O   0  0  0  0  0  0  0  0  0  0  0  0
   -7.9748    4.7281    0.0000 F   0  0  0  0  0  0  0  0  0  0  0  0
   -5.0762    3.4307    0.0000 O   0  0  0  0  0  0  0  0  0  0  0  0
   -3.5844    3.5875    0.0000 O   0  0  0  0  0  0  0  0  0  0  0  0
   -6.2697   -0.7500    0.0000 C   0  0  0  0  0  0  0  0  0  0  0  0
   -4.7780   -0.5932    0.0000 C   0  0  0  0  0  0  0  0  0  0  0  0
   -4.6733    0.9031    0.0000 N   0  0  0  0  0  2  0  0  0  0  0  0
   -3.3225   -0.9561    0.0000 N   0  0  0  0  0  2  0  0  0  0  0  0
   -5.3881   -1.9635    0.0000 C   0  0  0  0  0  0  0  0  0  0  0  0
   -3.8963   -2.1203    0.0000 C   0  0  0  0  0  0  0  0  0  0  0  0
   -2.7823    7.8261    0.0000 H   0  0  0  0  0  0  0  0  0  0  0  0
   -3.4729    5.8204    0.0000 H   0  0  0  0  0  0  0  0  0  0  0  0
   -0.7766    7.1355    0.0000 H   0  0  0  0  0  0  0  0  0  0  0  0
   -2.8855    4.6414    0.0000 H   0  0  0  0  0  0  0  0  0  0  0  0
   -0.1190    5.7873    0.0000 H   0  0  0  0  0  0  0  0  0  0  0  0
    0.5385    4.4391    0.0000 H   0  0  0  0  0  0  0  0  0  0  0  0
    0.5055    1.0852    0.0000 H   0  0  0  0  0  0  0  0  0  0  0  0
   -0.7627    1.9209    0.0000 H   0  0  0  0  0  0  0  0  0  0  0  0
    1.1961    3.0909    0.0000 H   0  0  0  0  0  0  0  0  0  0  0  0
   -2.4441    4.5964    0.0000 H   0  0  0  0  0  0  0  0  0  0  0  0
    0.4241    1.8084    0.0000 H   0  0  0  0  0  0  0  0  0  0  0  0
   -0.2043    3.3638    0.0000 H   0  0  0  0  0  0  0  0  0  0  0  0
   -1.9328    0.7762    0.0000 H   0  0  0  0  0  0  0  0  0  0  0  0
    1.8302   -1.1491    0.0000 H   0  0  0  0  0  0  0  0  0  0  0  0
    3.3074    0.8886    0.0000 H   0  0  0  0  0  0  0  0  0  0  0  0
    0.6817   -1.7537    0.0000 H   0  0  0  0  0  0  0  0  0  0  0  0
   -2.0793   -4.6220    0.0000 H   0  0  0  0  0  0  0  0  0  0  0  0
   -0.8096   -3.7816    0.0000 H   0  0  0  0  0  0  0  0  0  0  0  0
   -4.2886   -4.9120    0.0000 H   0  0  0  0  0  0  0  0  0  0  0  0
   -2.7675   -4.8456    0.0000 H   0  0  0  0  0  0  0  0  0  0  0  0
   -5.5397   -4.8573    0.0000 H   0  0  0  0  0  0  0  0  0  0  0  0
   -7.7204   -2.8938    0.0000 H   0  0  0  0  0  0  0  0  0  0  0  0
   -8.6294   -2.7031    0.0000 H   0  0  0  0  0  0  0  0  0  0  0  0
   -8.6557    0.2912    0.0000 H   0  0  0  0  0  0  0  0  0  0  0  0
   -9.9767    0.5353    0.0000 H   0  0  0  0  0  0  0  0  0  0  0  0
  -10.8979    0.9401    0.0000 H   0  0  0  0  0  0  0  0  0  0  0  0
  -12.8457    0.4544    0.0000 H   0  0  0  0  0  0  0  0  0  0  0  0
  -13.6083   -0.4544    0.0000 H   0  0  0  0  0  0  0  0  0  0  0  0
  -13.7483   -2.4569    0.0000 H   0  0  0  0  0  0  0  0  0  0  0  0
  -13.1196   -3.4631    0.0000 H   0  0  0  0  0  0  0  0  0  0  0  0
  -11.4340   -4.2671    0.0000 H   0  0  0  0  0  0  0  0  0  0  0  0
  -11.0009   -4.7549    0.0000 H   0  0  0  0  0  0  0  0  0  0  0  0
   -8.9860   -5.1102    0.0000 H   0  0  0  0  0  0  0  0  0  0  0  0
   -7.9999   -1.4596    0.0000 H   0  0  0  0  0  0  0  0  0  0  0  0
   -6.2407   -4.2031    0.0000 H   0  0  0  0  0  0  0  0  0  0  0  0
   -8.1258   -4.8339    0.0000 H   0  0  0  0  0  0  0  0  0  0  0  0
   -6.4977   -2.3741    0.0000 H   0  0  0  0  0  0  0  0  0  0  0  0
   -9.0242    0.3630    0.0000 H   0  0  0  0  0  0  0  0  0  0  0  0
   -8.2009    2.6329    0.0000 H   0  0  0  0  0  0  0  0  0  0  0  0
   -8.7341    1.2067    0.0000 H   0  0  0  0  0  0  0  0  0  0  0  0
   -7.7756    3.2183    0.0000 H   0  0  0  0  0  0  0  0  0  0  0  0
   -5.9579    0.7172    0.0000 H   0  0  0  0  0  0  0  0  0  0  0  0
   -3.3251    1.5607    0.0000 H   0  0  0  0  0  0  0  0  0  0  0  0
   -2.4198    0.2419    0.0000 H   0  0  0  0  0  0  0  0  0  0  0  0
   -2.4045   -2.2771    0.0000 H   0  0  0  0  0  0  0  0  0  0  0  0
   -3.3832   -0.7108    0.0000 H   0  0  0  0  0  0  0  0  0  0  0  0
   -3.6874   -3.6057    0.0000 H   0  0  0  0  0  0  0  0  0  0  0  0
  1  2  1  0
  2  3  1  0
  3  4  1  0
  3  5  1  0
  5  6  1  0
  6  7  1  0
  7  8  1  0
  8  9  1  0
  8 10  1  0
 10 11  1  0
 11 12  2  0
 11 13  1  0
 13 14  1  0
 14 15  1  0
 15 16  1  0
 16 17  1  0
 17 18  1  0
 18 19  1  0
 19 20  1  0
 20 21  1  0
 21 22  1  0
 23 22  1  1
 23 24  1  0
 24 25  1  0
 25 26  1  0
 17 27  1  0
 27 28  1  0
 28 29  1  0
 29 30  1  0
 30 31  1  0
 29 32  1  0
 32 33  1  0
 27 34  1  0
 34 35  1  0
 35 36  1  0
 35 37  1  0
 35 38  1  0
 38 39  1  1
 33  5  1  0
 38 34  1  0
 10  7  1  0
 38 15  1  0
 23 19  1  0
 25 23  1  0
  1 40  1  0
  1 41  1  0
  1 42  1  0
  2 43  1  0
  2 44  1  0
  3 45  1  1
  4 46  1  0
  4 47  1  0
  4 48  1  0
  5 49  1  6
  6 50  1  0
  6 51  1  0
  7 52  1  6
  8 53  1  1
  9 54  1  0
 10 55  1  6
 13 56  1  0
 13 57  1  0
 14 58  1  0
 14 59  1  0
 15 60  1  6
 17 61  1  6
 18 62  1  0
 18 63  1  0
 19 64  1  1
 20 65  1  0
 20 66  1  0
 21 67  1  0
 21 68  1  0
 22 69  1  0
 22 70  1  0
 24 71  1  0
 24 72  1  0
 25 73  1  6
 26 74  1  0
 26 75  1  0
 26 76  1  0
 27 77  1  0
 28 78  1  0
 28 79  1  0
 29 80  1  6
 34 81  1  1
 36 82  1  0
 37 83  1  0
 39 84  1  0
 39 85  1  0
 39 86  1  0
M  RAD  2  36   2  37   2
M  END
$$$$
