
     RDKit          2D

 29 28  0  0  0  0  0  0  0  0999 V2000
    0.2010    2.2500    0.0000 C   0  0  0  0  0  0  0  0  0  0  0  0
   -1.2990    2.2500    0.0000 C   0  0  0  0  0  0  0  0  0  0  0  0
   -2.7990    2.2500    0.0000 C   0  0  0  0  0  0  0  0  0  0  0  0
   -4.2990    2.2500    0.0000 O   0  0  0  0  0  0  0  0  0  0  0  0
   -1.2990    0.7500    0.0000 N   0  0  0  0  0  0  0  0  0  0  0  0
    0.0000    0.0000    0.0000 C   0  0  0  0  0  0  0  0  0  0  0  0
    1.2990    0.7500    0.0000 N   0  0  0  0  0  0  0  0  0  0  0  0
    2.5981   -0.0000    0.0000 C   0  0  0  0  0  0  0  0  0  0  0  0
    3.8971   -0.7500    0.0000 N   0  0  0  0  0  0  0  0  0  0  0  0
   -0.0000   -1.5000    0.0000 N   0  0  0  0  0  0  0  0  0  0  0  0
    1.2990   -2.2500    0.0000 C   0  0  0  0  0  0  0  0  0  0  0  0
   -1.2990   -2.2500    0.0000 C   0  0  0  0  0  0  0  0  0  0  0  0
   -1.2990   -3.7500    0.0000 O   0  0  0  0  0  0  0  0  0  0  0  0
    1.7010    2.2500    0.0000 H   0  0  0  0  0  0  0  0  0  0  0  0
    0.4656    1.1890    0.0000 H   0  0  0  0  0  0  0  0  0  0  0  0
    0.2010    3.7500    0.0000 H   0  0  0  0  0  0  0  0  0  0  0  0
   -1.2990    3.7500    0.0000 H   0  0  0  0  0  0  0  0  0  0  0  0
   -2.7990    3.7500    0.0000 H   0  0  0  0  0  0  0  0  0  0  0  0
   -2.9819    0.7612    0.0000 H   0  0  0  0  0  0  0  0  0  0  0  0
   -5.0490    0.9510    0.0000 H   0  0  0  0  0  0  0  0  0  0  0  0
   -2.4970   -0.1528    0.0000 H   0  0  0  0  0  0  0  0  0  0  0  0
    3.3481    1.2990    0.0000 H   0  0  0  0  0  0  0  0  0  0  0  0
    2.1183   -0.6366    0.0000 H   0  0  0  0  0  0  0  0  0  0  0  0
    3.8971   -2.2500    0.0000 H   0  0  0  0  0  0  0  0  0  0  0  0
    5.1962   -0.0000    0.0000 H   0  0  0  0  0  0  0  0  0  0  0  0
    2.5981   -3.0000    0.0000 H   0  0  0  0  0  0  0  0  0  0  0  0
    0.5490   -3.5490    0.0000 H   0  0  0  0  0  0  0  0  0  0  0  0
    1.6105   -1.5162    0.0000 H   0  0  0  0  0  0  0  0  0  0  0  0
   -2.5981   -1.5000    0.0000 H   0  0  0  0  0  0  0  0  0  0  0  0
  1  2  1  0
  2  3  1  0
  3  4  1  0
  2  5  1  0
  5  6  1  0
  6  7  2  3
  7  8  1  0
  8  9  1  0
  6 10  1  0
 10 11  1  0
 10 12  1  0
 12 13  2  0
  1 14  1  0
  1 15  1  0
  1 16  1  0
  2 17  1  6
  3 18  1  0
  3 19  1  0
  4 20  1  0
  5 21  1  0
  8 22  1  0
  8 23  1  0
  9 24  1  0
  9 25  1  0
 11 26  1  0
 11 27  1  0
 11 28  1  0
 12 29  1  0
M  END
$$$$
