
     RDKit          2D

 64 65  0  0  0  0  0  0  0  0999 V2000
   -5.5190   11.0384    0.0000 C   0  0  0  0  0  0  0  0  0  0  0  0
   -6.9286   11.5514    0.0000 C   0  0  0  0  0  0  0  0  0  0  0  0
   -8.3381   12.0644    0.0000 C   0  0  0  0  0  0  0  0  0  0  0  0
   -7.4416   10.1418    0.0000 C   0  0  0  0  0  0  0  0  0  0  0  0
   -7.9546    8.7323    0.0000 C   0  0  0  0  0  0  0  0  0  0  0  0
   -9.3642    9.2453    0.0000 Cl  0  0  0  0  0  0  0  0  0  0  0  0
   -8.4677    7.3228    0.0000 C   0  0  0  0  0  0  0  0  0  0  0  0
   -8.9807    5.9132    0.0000 C   0  0  0  0  0  0  0  0  0  0  0  0
   -9.4937    4.5037    0.0000 C   0  0  0  0  0  0  0  0  0  0  0  0
   -7.5712    5.4002    0.0000 C   0  0  0  0  0  0  0  0  0  0  0  0
   -6.1616    4.8872    0.0000 C   0  0  0  0  0  0  0  0  0  0  0  0
   -4.7521    4.3741    0.0000 C   0  0  0  0  0  0  0  0  0  0  0  0
   -3.3426    3.8611    0.0000 C   0  0  0  0  0  0  0  0  0  0  0  0
   -1.9330    3.3481    0.0000 C   0  0  0  0  0  0  0  0  0  0  0  0
   -0.4330    3.3481    0.0000 C   0  0  0  0  0  0  0  0  0  0  0  0
    0.3170    2.0490    0.0000 C   0  0  0  0  0  0  0  0  0  0  0  0
   -0.4330    0.7500    0.0000 C   0  0  0  0  0  0  0  0  0  0  0  0
   -1.9330    0.7500    0.0000 C   0  0  0  0  0  0  0  0  0  0  0  0
   -2.6830    2.0490    0.0000 C   0  0  0  0  0  0  0  0  0  0  0  0
    0.8660    0.0000    0.0000 C   0  0  0  0  0  0  0  0  0  0  0  0
   -0.4330   -0.7500    0.0000 C   0  0  0  0  0  0  0  0  0  0  0  0
   -6.5451    8.2193    0.0000 C   0  0  0  0  0  0  0  0  0  0  0  0
   -5.1356    7.7062    0.0000 N   0  0  0  0  0  0  0  0  0  0  0  0
   -6.0321    9.6288    0.0000 O   0  0  0  0  0  0  0  0  0  0  0  0
   -4.0575   10.7010    0.0000 H   0  0  0  0  0  0  0  0  0  0  0  0
   -5.1571   11.7486    0.0000 H   0  0  0  0  0  0  0  0  0  0  0  0
   -5.3397   11.8151    0.0000 H   0  0  0  0  0  0  0  0  0  0  0  0
   -6.4156   12.9609    0.0000 H   0  0  0  0  0  0  0  0  0  0  0  0
   -9.7477   12.5774    0.0000 H   0  0  0  0  0  0  0  0  0  0  0  0
   -7.8251   13.4740    0.0000 H   0  0  0  0  0  0  0  0  0  0  0  0
   -9.0191   10.7279    0.0000 H   0  0  0  0  0  0  0  0  0  0  0  0
   -8.9032   10.4792    0.0000 H   0  0  0  0  0  0  0  0  0  0  0  0
   -5.9498    9.9851    0.0000 H   0  0  0  0  0  0  0  0  0  0  0  0
   -7.0581    6.8097    0.0000 H   0  0  0  0  0  0  0  0  0  0  0  0
   -9.8772    7.8358    0.0000 H   0  0  0  0  0  0  0  0  0  0  0  0
  -10.3902    6.4263    0.0000 H   0  0  0  0  0  0  0  0  0  0  0  0
  -10.0068    3.0941    0.0000 H   0  0  0  0  0  0  0  0  0  0  0  0
  -10.9033    5.0167    0.0000 H   0  0  0  0  0  0  0  0  0  0  0  0
   -8.1572    3.8227    0.0000 H   0  0  0  0  0  0  0  0  0  0  0  0
   -7.9086    3.9386    0.0000 H   0  0  0  0  0  0  0  0  0  0  0  0
   -6.7323    6.6437    0.0000 H   0  0  0  0  0  0  0  0  0  0  0  0
   -5.4806    6.2237    0.0000 H   0  0  0  0  0  0  0  0  0  0  0  0
   -6.6747    3.4776    0.0000 H   0  0  0  0  0  0  0  0  0  0  0  0
   -5.2651    2.9646    0.0000 H   0  0  0  0  0  0  0  0  0  0  0  0
   -4.0711    5.7106    0.0000 H   0  0  0  0  0  0  0  0  0  0  0  0
   -4.0236    2.5246    0.0000 H   0  0  0  0  0  0  0  0  0  0  0  0
   -2.8295    5.2706    0.0000 H   0  0  0  0  0  0  0  0  0  0  0  0
   -1.6725    4.8253    0.0000 H   0  0  0  0  0  0  0  0  0  0  0  0
   -0.6935    4.8253    0.0000 H   0  0  0  0  0  0  0  0  0  0  0  0
    0.9765    3.8611    0.0000 H   0  0  0  0  0  0  0  0  0  0  0  0
    1.4661    3.0132    0.0000 H   0  0  0  0  0  0  0  0  0  0  0  0
    1.5750    1.2321    0.0000 H   0  0  0  0  0  0  0  0  0  0  0  0
   -1.8545   -0.7479    0.0000 H   0  0  0  0  0  0  0  0  0  0  0  0
   -3.3426    0.2370    0.0000 H   0  0  0  0  0  0  0  0  0  0  0  0
   -3.8321    1.0849    0.0000 H   0  0  0  0  0  0  0  0  0  0  0  0
   -3.9410    2.8660    0.0000 H   0  0  0  0  0  0  0  0  0  0  0  0
    1.9631    1.0230    0.0000 H   0  0  0  0  0  0  0  0  0  0  0  0
    1.8302   -1.1491    0.0000 H   0  0  0  0  0  0  0  0  0  0  0  0
    0.0800   -2.1595    0.0000 H   0  0  0  0  0  0  0  0  0  0  0  0
   -1.8675   -1.1886    0.0000 H   0  0  0  0  0  0  0  0  0  0  0  0
   -6.7018    6.7275    0.0000 H   0  0  0  0  0  0  0  0  0  0  0  0
   -3.9865    8.6704    0.0000 H   0  0  0  0  0  0  0  0  0  0  0  0
   -4.5254    6.3360    0.0000 H   0  0  0  0  0  0  0  0  0  0  0  0
   -4.5341    9.7073    0.0000 H   0  0  0  0  0  0  0  0  0  0  0  0
  1  2  1  0
  2  3  1  0
  2  4  1  0
  4  5  1  0
  5  6  1  6
  5  7  1  0
  7  8  1  0
  8  9  1  0
  8 10  1  0
 10 11  1  0
 11 12  1  0
 12 13  1  0
 13 14  1  0
 14 15  1  0
 15 16  1  0
 16 17  1  0
 17 18  1  0
 18 19  1  0
 17 20  1  0
 20 21  1  0
  5 22  1  0
 22 23  1  0
 22 24  1  0
 19 14  1  0
 21 17  1  0
  1 25  1  0
  1 26  1  0
  1 27  1  0
  2 28  1  0
  3 29  1  0
  3 30  1  0
  3 31  1  0
  4 32  1  0
  4 33  1  0
  7 34  1  0
  7 35  1  0
  8 36  1  1
  9 37  1  0
  9 38  1  0
  9 39  1  0
 10 40  1  0
 10 41  1  0
 11 42  1  0
 11 43  1  0
 12 44  1  0
 12 45  1  0
 13 46  1  0
 13 47  1  0
 14 48  1  0
 15 49  1  0
 15 50  1  0
 16 51  1  0
 16 52  1  0
 18 53  1  0
 18 54  1  0
 19 55  1  0
 19 56  1  0
 20 57  1  0
 20 58  1  0
 21 59  1  0
 21 60  1  0
 22 61  1  6
 23 62  1  0
 23 63  1  0
 24 64  1  0
M  END
$$$$
