
     RDKit          2D

 42 46  0  0  0  0  0  0  0  0999 V2000
    8.1147   -0.7829    0.0000 O   0  0  0  0  0  0  0  0  0  0  0  0
    6.7051   -1.2960    0.0000 C   0  0  0  0  0  0  0  0  0  0  0  0
    7.2182   -2.7055    0.0000 O   0  0  0  0  0  0  0  0  0  0  0  0
    5.2956   -1.8090    0.0000 C   0  0  0  0  0  0  0  0  0  0  0  0
    3.8861   -2.3220    0.0000 C   0  0  0  0  0  0  0  0  0  0  0  0
    2.4765   -2.8350    0.0000 C   0  0  0  0  0  0  0  0  0  0  0  0
    1.0670   -3.3481    0.0000 C   0  0  0  0  0  0  0  0  0  0  0  0
    0.3170   -2.0490    0.0000 C   0  0  0  0  0  0  0  0  0  0  0  0
   -0.9821   -2.7990    0.0000 C   0  0  0  0  0  0  0  0  0  0  0  0
   -1.7321   -1.5000    0.0000 C   0  0  0  0  0  0  0  0  0  0  0  0
   -1.7321    0.0000    0.0000 C   0  0  0  0  0  0  0  0  0  0  0  0
   -1.2190    1.4095    0.0000 C   0  0  0  0  0  0  0  0  0  0  0  0
   -1.2190    2.9095    0.0000 C   0  0  0  0  0  0  0  0  0  0  0  0
   -2.5181    2.1595    0.0000 C   0  0  0  0  0  0  0  0  0  0  0  0
   -0.4330   -0.7500    0.0000 C   0  0  0  0  0  0  0  0  0  0  0  0
    1.3275   -4.8253    0.0000 C   0  0  0  0  0  0  0  0  0  0  0  0
    0.1784   -5.7895    0.0000 C   0  0  0  0  0  0  0  0  0  0  0  0
   -0.0821   -4.3123    0.0000 C   0  0  0  0  0  0  0  0  0  0  0  0
    8.3752    0.6943    0.0000 H   0  0  0  0  0  0  0  0  0  0  0  0
    6.1921    0.1136    0.0000 H   0  0  0  0  0  0  0  0  0  0  0  0
    8.6954   -2.9660    0.0000 H   0  0  0  0  0  0  0  0  0  0  0  0
    5.8086   -3.2185    0.0000 H   0  0  0  0  0  0  0  0  0  0  0  0
    4.7826   -0.3994    0.0000 H   0  0  0  0  0  0  0  0  0  0  0  0
    4.3991   -3.7316    0.0000 H   0  0  0  0  0  0  0  0  0  0  0  0
    3.3730   -0.9125    0.0000 H   0  0  0  0  0  0  0  0  0  0  0  0
    2.9896   -4.2446    0.0000 H   0  0  0  0  0  0  0  0  0  0  0  0
    2.2032   -1.6512    0.0000 H   0  0  0  0  0  0  0  0  0  0  0  0
    1.2873   -1.3178    0.0000 H   0  0  0  0  0  0  0  0  0  0  0  0
   -2.3628   -3.3851    0.0000 H   0  0  0  0  0  0  0  0  0  0  0  0
   -0.7624   -3.5653    0.0000 H   0  0  0  0  0  0  0  0  0  0  0  0
   -3.1809   -1.8882    0.0000 H   0  0  0  0  0  0  0  0  0  0  0  0
   -3.2300    0.0785    0.0000 H   0  0  0  0  0  0  0  0  0  0  0  0
    0.2582    1.1491    0.0000 H   0  0  0  0  0  0  0  0  0  0  0  0
    0.2582    3.1700    0.0000 H   0  0  0  0  0  0  0  0  0  0  0  0
   -1.7321    4.3191    0.0000 H   0  0  0  0  0  0  0  0  0  0  0  0
   -3.4822    3.3086    0.0000 H   0  0  0  0  0  0  0  0  0  0  0  0
   -3.6151    1.1366    0.0000 H   0  0  0  0  0  0  0  0  0  0  0  0
    0.6276    0.3107    0.0000 H   0  0  0  0  0  0  0  0  0  0  0  0
    2.7370   -5.3383    0.0000 H   0  0  0  0  0  0  0  0  0  0  0  0
    0.9284   -7.0885    0.0000 H   0  0  0  0  0  0  0  0  0  0  0  0
   -1.2311   -6.3025    0.0000 H   0  0  0  0  0  0  0  0  0  0  0  0
   -1.2659   -4.0390    0.0000 H   0  0  0  0  0  0  0  0  0  0  0  0
  1  2  1  0
  2  3  1  0
  2  4  1  0
  4  5  1  0
  5  6  1  0
  6  7  1  0
  7  8  1  0
  8  9  1  0
  9 10  1  0
 10 11  1  0
 11 12  1  0
 12 13  1  0
 13 14  1  0
 11 15  1  0
  7 16  1  0
 16 17  1  0
 17 18  1  0
 18  7  1  0
 15  8  1  0
 18 16  1  0
 15 10  1  0
 14 12  1  0
  1 19  1  0
  2 20  1  0
  3 21  1  0
  4 22  1  0
  4 23  1  0
  5 24  1  0
  5 25  1  0
  6 26  1  0
  6 27  1  0
  8 28  1  0
  9 29  1  0
  9 30  1  0
 10 31  1  0
 11 32  1  0
 12 33  1  0
 13 34  1  0
 13 35  1  0
 14 36  1  0
 14 37  1  0
 15 38  1  0
 16 39  1  0
 17 40  1  0
 17 41  1  0
 18 42  1  0
M  END
$$$$
