
     RDKit          2D

114124  0  0  0  0  0  0  0  0999 V2000
   -4.1914    6.7858    0.0000 C   0  0  0  0  0  0  0  0  0  0  0  0
   -3.9309    5.3086    0.0000 C   0  0  0  0  0  0  0  0  0  0  0  0
   -2.6319    4.5586    0.0000 C   0  0  0  0  0  0  0  0  0  0  0  0
   -1.5712    3.4979    0.0000 C   0  0  0  0  0  0  0  0  0  0  0  0
   -0.8212    2.1989    0.0000 C   0  0  0  0  0  0  0  0  0  0  0  0
   -0.4330    0.7500    0.0000 C   0  0  0  0  0  0  0  0  0  0  0  0
   -1.9202    0.9458    0.0000 C   0  0  0  0  0  0  0  0  0  0  0  0
    0.8660    0.0000    0.0000 C   0  0  0  0  0  0  0  0  0  0  0  0
   -0.4330   -0.7500    0.0000 C   0  0  0  0  0  0  0  0  0  0  0  0
    0.6276   -1.8107    0.0000 C   0  0  0  0  0  0  0  0  0  0  0  0
   -0.8212   -2.1989    0.0000 C   0  0  0  0  0  0  0  0  0  0  0  0
   -1.5712   -3.4979    0.0000 C   0  0  0  0  0  0  0  0  0  0  0  0
   -1.1830   -4.9468    0.0000 C   0  0  0  0  0  0  0  0  0  0  0  0
   -2.6319   -4.5586    0.0000 C   0  0  0  0  0  0  0  0  0  0  0  0
   -3.9309   -5.3086    0.0000 C   0  0  0  0  0  0  0  0  0  0  0  0
   -2.7022   -6.1690    0.0000 C   0  0  0  0  0  0  0  0  0  0  0  0
   -5.3798   -5.6968    0.0000 C   0  0  0  0  0  0  0  0  0  0  0  0
   -6.8798   -5.6968    0.0000 C   0  0  0  0  0  0  0  0  0  0  0  0
   -8.3287   -5.3086    0.0000 C   0  0  0  0  0  0  0  0  0  0  0  0
   -9.6278   -4.5586    0.0000 C   0  0  0  0  0  0  0  0  0  0  0  0
  -10.6884   -3.4979    0.0000 C   0  0  0  0  0  0  0  0  0  0  0  0
  -11.4384   -2.1989    0.0000 C   0  0  0  0  0  0  0  0  0  0  0  0
  -11.8266   -0.7500    0.0000 C   0  0  0  0  0  0  0  0  0  0  0  0
  -11.8266    0.7500    0.0000 C   0  0  0  0  0  0  0  0  0  0  0  0
  -10.7660   -0.3107    0.0000 C   0  0  0  0  0  0  0  0  0  0  0  0
   -9.2717   -0.1799    0.0000 C   0  0  0  0  0  0  0  0  0  0  0  0
  -10.0160   -1.6097    0.0000 C   0  0  0  0  0  0  0  0  0  0  0  0
   -8.5388   -1.8702    0.0000 C   0  0  0  0  0  0  0  0  0  0  0  0
   -9.6278   -3.0586    0.0000 C   0  0  0  0  0  0  0  0  0  0  0  0
  -11.4384    2.1989    0.0000 C   0  0  0  0  0  0  0  0  0  0  0  0
  -12.9384    2.1989    0.0000 C   0  0  0  0  0  0  0  0  0  0  0  0
  -12.1884    3.4979    0.0000 C   0  0  0  0  0  0  0  0  0  0  0  0
  -10.6884    3.4979    0.0000 C   0  0  0  0  0  0  0  0  0  0  0  0
   -9.6278    4.5586    0.0000 N   0  0  0  0  0  0  0  0  0  0  0  0
   -8.3287    5.3086    0.0000 C   0  0  0  0  0  0  0  0  0  0  0  0
   -7.9405    6.7575    0.0000 C   0  0  0  0  0  0  0  0  0  0  0  0
   -9.3000    7.3914    0.0000 C   0  0  0  0  0  0  0  0  0  0  0  0
   -6.8798    5.6968    0.0000 C   0  0  0  0  0  0  0  0  0  0  0  0
   -5.3798    5.6968    0.0000 C   0  0  0  0  0  0  0  0  0  0  0  0
   -4.9163    7.1234    0.0000 C   0  0  0  0  0  0  0  0  0  0  0  0
   -6.1298    8.0051    0.0000 C   0  0  0  0  0  0  0  0  0  0  0  0
   -7.5001    8.6152    0.0000 C   0  0  0  0  0  0  0  0  0  0  0  0
   -7.3434    7.1234    0.0000 C   0  0  0  0  0  0  0  0  0  0  0  0
   -8.4467   -5.5935    0.0000 C   0  0  0  0  0  0  0  0  0  0  0  0
   -6.9501   -4.0865    0.0000 C   0  0  0  0  0  0  0  0  0  0  0  0
   -4.2699    8.2837    0.0000 H   0  0  0  0  0  0  0  0  0  0  0  0
   -2.7570    7.2244    0.0000 H   0  0  0  0  0  0  0  0  0  0  0  0
   -5.6894    6.7073    0.0000 H   0  0  0  0  0  0  0  0  0  0  0  0
   -2.7022    6.1690    0.0000 H   0  0  0  0  0  0  0  0  0  0  0  0
   -2.3200    6.0258    0.0000 H   0  0  0  0  0  0  0  0  0  0  0  0
   -1.2954    5.2396    0.0000 H   0  0  0  0  0  0  0  0  0  0  0  0
   -0.8902    4.8344    0.0000 H   0  0  0  0  0  0  0  0  0  0  0  0
   -0.1040    3.8098    0.0000 H   0  0  0  0  0  0  0  0  0  0  0  0
    0.1825    3.3136    0.0000 H   0  0  0  0  0  0  0  0  0  0  0  0
    0.6560    1.9384    0.0000 H   0  0  0  0  0  0  0  0  0  0  0  0
   -3.4073    1.1416    0.0000 H   0  0  0  0  0  0  0  0  0  0  0  0
   -2.1160   -0.5414    0.0000 H   0  0  0  0  0  0  0  0  0  0  0  0
   -1.7244    2.4330    0.0000 H   0  0  0  0  0  0  0  0  0  0  0  0
    1.8302    1.1491    0.0000 H   0  0  0  0  0  0  0  0  0  0  0  0
    1.9631   -1.0230    0.0000 H   0  0  0  0  0  0  0  0  0  0  0  0
    1.9521   -1.1065    0.0000 H   0  0  0  0  0  0  0  0  0  0  0  0
    1.2616   -3.1701    0.0000 H   0  0  0  0  0  0  0  0  0  0  0  0
    0.0919   -3.3889    0.0000 H   0  0  0  0  0  0  0  0  0  0  0  0
   -2.4844   -2.3079    0.0000 H   0  0  0  0  0  0  0  0  0  0  0  0
    0.3113   -4.8161    0.0000 H   0  0  0  0  0  0  0  0  0  0  0  0
   -1.1306   -6.4459    0.0000 H   0  0  0  0  0  0  0  0  0  0  0  0
   -2.0821   -5.9542    0.0000 H   0  0  0  0  0  0  0  0  0  0  0  0
   -4.1914   -6.7858    0.0000 H   0  0  0  0  0  0  0  0  0  0  0  0
   -1.5875   -7.1727    0.0000 H   0  0  0  0  0  0  0  0  0  0  0  0
   -3.4064   -7.4934    0.0000 H   0  0  0  0  0  0  0  0  0  0  0  0
   -1.5701   -5.1849    0.0000 H   0  0  0  0  0  0  0  0  0  0  0  0
   -4.5629   -6.9548    0.0000 H   0  0  0  0  0  0  0  0  0  0  0  0
   -6.0138   -7.0563    0.0000 H   0  0  0  0  0  0  0  0  0  0  0  0
   -7.0756   -7.1840    0.0000 H   0  0  0  0  0  0  0  0  0  0  0  0
   -8.0682   -6.7858    0.0000 H   0  0  0  0  0  0  0  0  0  0  0  0
   -9.5574   -6.1690    0.0000 H   0  0  0  0  0  0  0  0  0  0  0  0
  -11.2014   -4.9075    0.0000 H   0  0  0  0  0  0  0  0  0  0  0  0
  -12.1556   -3.8098    0.0000 H   0  0  0  0  0  0  0  0  0  0  0  0
  -12.4421   -3.3136    0.0000 H   0  0  0  0  0  0  0  0  0  0  0  0
  -12.9364   -2.1204    0.0000 H   0  0  0  0  0  0  0  0  0  0  0  0
  -13.0847   -1.5669    0.0000 H   0  0  0  0  0  0  0  0  0  0  0  0
  -13.2532   -0.2865    0.0000 H   0  0  0  0  0  0  0  0  0  0  0  0
  -13.3266    0.7630    0.0000 H   0  0  0  0  0  0  0  0  0  0  0  0
  -10.4286    1.1509    0.0000 H   0  0  0  0  0  0  0  0  0  0  0  0
   -7.8045    0.1320    0.0000 H   0  0  0  0  0  0  0  0  0  0  0  0
   -9.2193    1.3192    0.0000 H   0  0  0  0  0  0  0  0  0  0  0  0
   -8.6140   -1.5281    0.0000 H   0  0  0  0  0  0  0  0  0  0  0  0
   -9.0123   -0.4950    0.0000 H   0  0  0  0  0  0  0  0  0  0  0  0
   -7.0616   -2.1306    0.0000 H   0  0  0  0  0  0  0  0  0  0  0  0
   -7.9286   -0.4999    0.0000 H   0  0  0  0  0  0  0  0  0  0  0  0
   -8.7992   -3.3474    0.0000 H   0  0  0  0  0  0  0  0  0  0  0  0
   -8.2683   -3.6925    0.0000 H   0  0  0  0  0  0  0  0  0  0  0  0
   -8.2094   -2.5703    0.0000 H   0  0  0  0  0  0  0  0  0  0  0  0
  -13.5486    0.8286    0.0000 H   0  0  0  0  0  0  0  0  0  0  0  0
  -14.3480    2.7119    0.0000 H   0  0  0  0  0  0  0  0  0  0  0  0
  -12.9384    4.7970    0.0000 H   0  0  0  0  0  0  0  0  0  0  0  0
  -11.2624    4.8837    0.0000 H   0  0  0  0  0  0  0  0  0  0  0  0
  -10.6791    5.6284    0.0000 H   0  0  0  0  0  0  0  0  0  0  0  0
   -9.6212    6.0699    0.0000 H   0  0  0  0  0  0  0  0  0  0  0  0
   -7.4030    8.1579    0.0000 H   0  0  0  0  0  0  0  0  0  0  0  0
  -10.6594    8.0253    0.0000 H   0  0  0  0  0  0  0  0  0  0  0  0
   -8.8365    8.8180    0.0000 H   0  0  0  0  0  0  0  0  0  0  0  0
  -10.2440    6.2257    0.0000 H   0  0  0  0  0  0  0  0  0  0  0  0
   -6.1858    6.9619    0.0000 H   0  0  0  0  0  0  0  0  0  0  0  0
   -3.4391    6.8630    0.0000 H   0  0  0  0  0  0  0  0  0  0  0  0
   -4.3302    8.5042    0.0000 H   0  0  0  0  0  0  0  0  0  0  0  0
   -5.3798    9.3041    0.0000 H   0  0  0  0  0  0  0  0  0  0  0  0
   -7.1373   10.0706    0.0000 H   0  0  0  0  0  0  0  0  0  0  0  0
   -8.9726    8.9014    0.0000 H   0  0  0  0  0  0  0  0  0  0  0  0
   -8.8424    7.1758    0.0000 H   0  0  0  0  0  0  0  0  0  0  0  0
   -8.6175   -3.5124    0.0000 H   0  0  0  0  0  0  0  0  0  0  0  0
   -5.7214   -3.2261    0.0000 H   0  0  0  0  0  0  0  0  0  0  0  0
   -7.6543   -2.7620    0.0000 H   0  0  0  0  0  0  0  0  0  0  0  0
   -6.0898   -5.3152    0.0000 H   0  0  0  0  0  0  0  0  0  0  0  0
  1  2  1  0
  2  3  1  0
  3  4  1  0
  4  5  1  0
  5  6  1  0
  6  7  1  1
  6  8  1  0
  9  8  1  1
  9 10  1  0
 10 11  1  0
 11 12  1  0
 12 13  1  0
 13 14  1  0
 14 15  1  0
 15 16  1  0
 15 17  1  0
 17 18  1  0
 18 19  1  0
 19 20  1  0
 20 21  1  0
 21 22  1  0
 22 23  1  0
 23 24  1  0
 24 25  1  0
 25 26  1  0
 25 27  1  0
 27 28  1  0
 27 29  1  0
 24 30  1  0
 30 31  1  1
 31 32  1  0
 32 33  1  0
 33 34  1  0
 34 35  1  0
 35 36  1  0
 36 37  1  0
 38 36  1  6
 38 39  1  0
 39 40  1  0
 40 41  1  0
 41 42  1  0
 42 43  1  0
 20 44  1  0
 44 45  1  0
 39  2  1  0
 43 41  1  0
  9  6  1  0
 14 12  1  0
 44 18  1  0
 11  9  1  0
 20 29  1  1
 32 30  1  0
 38 35  1  0
 33 30  1  0
 43 38  1  0
  1 46  1  0
  1 47  1  0
  1 48  1  0
  2 49  1  6
  3 50  1  0
  3 51  1  0
  4 52  1  0
  4 53  1  0
  5 54  1  0
  5 55  1  0
  7 56  1  0
  7 57  1  0
  7 58  1  0
  8 59  1  0
  8 60  1  0
 10 61  1  0
 10 62  1  0
 11 63  1  6
 12 64  1  6
 13 65  1  0
 13 66  1  0
 14 67  1  6
 15 68  1  1
 16 69  1  0
 16 70  1  0
 16 71  1  0
 17 72  1  0
 17 73  1  0
 18 74  1  1
 19 75  1  0
 19 76  1  0
 21 77  1  0
 21 78  1  0
 22 79  1  0
 22 80  1  0
 23 81  1  0
 23 82  1  0
 24 83  1  6
 25 84  1  6
 26 85  1  0
 26 86  1  0
 26 87  1  0
 27 88  1  1
 28 89  1  0
 28 90  1  0
 28 91  1  0
 29 92  1  0
 29 93  1  0
 31 94  1  0
 31 95  1  0
 32 96  1  6
 33 97  1  6
 34 98  1  0
 35 99  1  1
 36100  1  1
 37101  1  0
 37102  1  0
 37103  1  0
 39104  1  6
 40105  1  0
 40106  1  0
 41107  1  6
 42108  1  0
 42109  1  0
 43110  1  6
 44111  1  1
 45112  1  0
 45113  1  0
 45114  1  0
M  END
$$$$
