
     RDKit          2D

 53 57  0  0  0  0  0  0  0  0999 V2000
   -0.9016   -4.0975    0.0000 C   0  0  0  0  0  0  0  0  0  0  0  0
   -1.2354   -2.6351    0.0000 C   0  0  0  0  0  0  0  0  0  0  0  0
    0.2646   -2.6351    0.0000 C   0  0  0  0  0  0  0  0  0  0  0  0
    1.1998   -1.4624    0.0000 C   0  0  0  0  0  0  0  0  0  0  0  0
    0.8660    0.0000    0.0000 C   0  0  0  0  0  0  0  0  0  0  0  0
   -0.4330    0.7500    0.0000 C   0  0  0  0  0  0  0  0  0  0  0  0
   -0.4330   -0.7500    0.0000 C   0  0  0  0  0  0  0  0  0  0  0  0
   -1.7321    0.0000    0.0000 C   0  0  0  0  0  0  0  0  0  0  0  0
   -2.3255    1.3776    0.0000 O   0  0  0  0  0  0  0  0  0  0  0  0
   -3.6656    2.0515    0.0000 C   0  0  0  0  0  0  0  0  0  0  0  0
   -5.1253    1.7063    0.0000 C   0  0  0  0  0  0  0  0  0  0  0  0
   -6.0217    0.5036    0.0000 C   0  0  0  0  0  0  0  0  0  0  0  0
   -5.9352   -0.9939    0.0000 C   0  0  0  0  0  0  0  0  0  0  0  0
   -7.3946   -0.6473    0.0000 C   0  0  0  0  0  0  0  0  0  0  0  0
   -8.8540   -0.3006    0.0000 C   0  0  0  0  0  0  0  0  0  0  0  0
  -10.3134    0.0460    0.0000 C   0  0  0  0  0  0  0  0  0  0  0  0
  -11.8033   -0.1274    0.0000 C   0  0  0  0  0  0  0  0  0  0  0  0
  -10.9082   -1.3310    0.0000 C   0  0  0  0  0  0  0  0  0  0  0  0
   -4.9064   -2.0855    0.0000 C   0  0  0  0  0  0  0  0  0  0  0  0
   -3.4166   -2.2604    0.0000 C   0  0  0  0  0  0  0  0  0  0  0  0
   -2.1707   -1.4624    0.0000 C   0  0  0  0  0  0  0  0  0  0  0  0
   -0.5679   -5.5599    0.0000 H   0  0  0  0  0  0  0  0  0  0  0  0
   -2.3640   -4.4313    0.0000 H   0  0  0  0  0  0  0  0  0  0  0  0
   -0.1086   -4.0162    0.0000 H   0  0  0  0  0  0  0  0  0  0  0  0
   -2.4975   -3.4458    0.0000 H   0  0  0  0  0  0  0  0  0  0  0  0
    1.5266   -3.4458    0.0000 H   0  0  0  0  0  0  0  0  0  0  0  0
    0.1832   -3.4281    0.0000 H   0  0  0  0  0  0  0  0  0  0  0  0
    2.6205   -0.9812    0.0000 H   0  0  0  0  0  0  0  0  0  0  0  0
    2.2710   -2.5124    0.0000 H   0  0  0  0  0  0  0  0  0  0  0  0
    2.3548    0.1828    0.0000 H   0  0  0  0  0  0  0  0  0  0  0  0
   -0.4330    2.2500    0.0000 H   0  0  0  0  0  0  0  0  0  0  0  0
   -0.6159   -2.2388    0.0000 H   0  0  0  0  0  0  0  0  0  0  0  0
   -2.6357    3.1420    0.0000 H   0  0  0  0  0  0  0  0  0  0  0  0
   -4.2510    3.4326    0.0000 H   0  0  0  0  0  0  0  0  0  0  0  0
   -5.2205    3.2033    0.0000 H   0  0  0  0  0  0  0  0  0  0  0  0
   -6.4615    2.3880    0.0000 H   0  0  0  0  0  0  0  0  0  0  0  0
   -6.9168    1.7072    0.0000 H   0  0  0  0  0  0  0  0  0  0  0  0
   -7.5214    0.5306    0.0000 H   0  0  0  0  0  0  0  0  0  0  0  0
   -6.8386   -2.1914    0.0000 H   0  0  0  0  0  0  0  0  0  0  0  0
   -7.7413   -2.1067    0.0000 H   0  0  0  0  0  0  0  0  0  0  0  0
   -7.4114    0.8526    0.0000 H   0  0  0  0  0  0  0  0  0  0  0  0
   -9.0202   -1.7914    0.0000 H   0  0  0  0  0  0  0  0  0  0  0  0
   -8.5073    1.1588    0.0000 H   0  0  0  0  0  0  0  0  0  0  0  0
  -10.2254    1.5435    0.0000 H   0  0  0  0  0  0  0  0  0  0  0  0
  -12.2328    1.3098    0.0000 H   0  0  0  0  0  0  0  0  0  0  0  0
  -13.1441   -0.7999    0.0000 H   0  0  0  0  0  0  0  0  0  0  0  0
  -11.9381   -2.4215    0.0000 H   0  0  0  0  0  0  0  0  0  0  0  0
   -9.7653   -2.3024    0.0000 H   0  0  0  0  0  0  0  0  0  0  0  0
   -6.1552   -2.9165    0.0000 H   0  0  0  0  0  0  0  0  0  0  0  0
   -4.8287   -3.5835    0.0000 H   0  0  0  0  0  0  0  0  0  0  0  0
   -3.8391   -3.6997    0.0000 H   0  0  0  0  0  0  0  0  0  0  0  0
   -2.3942   -3.3580    0.0000 H   0  0  0  0  0  0  0  0  0  0  0  0
   -0.7075   -1.7926    0.0000 H   0  0  0  0  0  0  0  0  0  0  0  0
  1  2  1  0
  2  3  1  0
  3  4  1  0
  4  5  1  0
  5  6  1  0
  6  7  1  0
  7  8  1  0
  8  9  1  0
  9 10  1  0
 10 11  1  0
 11 12  1  0
 12 13  1  0
 13 14  1  0
 14 15  1  0
 15 16  1  0
 16 17  1  0
 17 18  1  0
 13 19  1  0
 19 20  1  0
 20 21  1  0
 21  2  1  0
  7  5  1  0
 21  8  1  0
  8  6  1  0
 18 16  1  0
  1 22  1  0
  1 23  1  0
  1 24  1  0
  2 25  1  0
  3 26  1  0
  3 27  1  0
  4 28  1  0
  4 29  1  0
  5 30  1  0
  6 31  1  0
  7 32  1  0
 10 33  1  0
 10 34  1  0
 11 35  1  0
 11 36  1  0
 12 37  1  0
 12 38  1  0
 13 39  1  0
 14 40  1  0
 14 41  1  0
 15 42  1  0
 15 43  1  0
 16 44  1  0
 17 45  1  0
 17 46  1  0
 18 47  1  0
 18 48  1  0
 19 49  1  0
 19 50  1  0
 20 51  1  0
 20 52  1  0
 21 53  1  0
M  END
$$$$
