
     RDKit          2D

106118  0  0  0  0  0  0  0  0999 V2000
    5.6504    3.7646    0.0000 C   0  0  0  0  0  0  0  0  0  0  0  0
    4.2238    3.3011    0.0000 C   0  0  0  0  0  0  0  0  0  0  0  0
    2.7972    2.8375    0.0000 C   0  0  0  0  0  0  0  0  0  0  0  0
    1.3706    2.3740    0.0000 C   0  0  0  0  0  0  0  0  0  0  0  0
    1.9807    1.0037    0.0000 C   0  0  0  0  0  0  0  0  0  0  0  0
    0.8660    0.0000    0.0000 N   0  0  0  0  0  0  0  0  0  0  0  0
   -0.4330    0.7500    0.0000 C   0  0  0  0  0  0  0  0  0  0  0  0
   -0.1211    2.2172    0.0000 C   0  0  0  0  0  0  0  0  0  0  0  0
   -1.7321    0.0000    0.0000 C   0  0  0  0  0  0  0  0  0  0  0  0
   -3.0311   -0.7500    0.0000 C   0  0  0  0  0  0  0  0  0  0  0  0
   -3.0311    0.7500    0.0000 C   0  0  0  0  0  0  0  0  0  0  0  0
   -4.3301    1.5000    0.0000 C   0  0  0  0  0  0  0  0  0  0  0  0
   -5.6292    0.7500    0.0000 C   0  0  0  0  0  0  0  0  0  0  0  0
   -6.9282    0.0000    0.0000 C   0  0  0  0  0  0  0  0  0  0  0  0
   -7.8924   -1.1491    0.0000 C   0  0  0  0  0  0  0  0  0  0  0  0
   -8.5966   -2.4735    0.0000 C   0  0  0  0  0  0  0  0  0  0  0  0
   -7.9390   -3.8217    0.0000 O   0  0  0  0  0  0  0  0  0  0  0  0
  -10.0738   -2.2130    0.0000 C   0  0  0  0  0  0  0  0  0  0  0  0
  -10.2826   -0.7276    0.0000 C   0  0  0  0  0  0  0  0  0  0  0  0
  -10.1779    0.7687    0.0000 C   0  0  0  0  0  0  0  0  0  0  0  0
   -9.5678    2.1391    0.0000 C   0  0  0  0  0  0  0  0  0  0  0  0
   -8.9577    3.5094    0.0000 C   0  0  0  0  0  0  0  0  0  0  0  0
   -8.3476    4.8797    0.0000 C   0  0  0  0  0  0  0  0  0  0  0  0
   -7.7375    6.2500    0.0000 C   0  0  0  0  0  0  0  0  0  0  0  0
   -7.1274    7.6203    0.0000 C   0  0  0  0  0  0  0  0  0  0  0  0
   -6.5173    8.9906    0.0000 C   0  0  0  0  0  0  0  0  0  0  0  0
   -8.4977    8.2304    0.0000 C   0  0  0  0  0  0  0  0  0  0  0  0
   -9.5767    9.2724    0.0000 C   0  0  0  0  0  0  0  0  0  0  0  0
   -8.1348    9.6859    0.0000 C   0  0  0  0  0  0  0  0  0  0  0  0
   -8.2916   11.1777    0.0000 C   0  0  0  0  0  0  0  0  0  0  0  0
   -8.9344   -0.0701    0.0000 C   0  0  0  0  0  0  0  0  0  0  0  0
   -5.6292   -0.7500    0.0000 C   0  0  0  0  0  0  0  0  0  0  0  0
   -4.3301   -1.5000    0.0000 C   0  0  0  0  0  0  0  0  0  0  0  0
   -3.0311   -2.2500    0.0000 C   0  0  0  0  0  0  0  0  0  0  0  0
   -1.7321   -3.0000    0.0000 C   0  0  0  0  0  0  0  0  0  0  0  0
   -0.4330   -2.2500    0.0000 C   0  0  0  0  0  0  0  0  0  0  0  0
    1.0442   -1.9895    0.0000 C   0  0  0  0  0  0  0  0  0  0  0  0
    2.5214   -1.7291    0.0000 C   0  0  0  0  0  0  0  0  0  0  0  0
    3.9986   -1.9895    0.0000 C   0  0  0  0  0  0  0  0  0  0  0  0
    3.0344   -3.1386    0.0000 C   0  0  0  0  0  0  0  0  0  0  0  0
   -0.4330   -0.7500    0.0000 C   0  0  0  0  0  0  0  0  0  0  0  0
   -5.0801    2.7990    0.0000 C   0  0  0  0  0  0  0  0  0  0  0  0
   -4.3301    4.0981    0.0000 C   0  0  0  0  0  0  0  0  0  0  0  0
   -3.5801    2.7990    0.0000 C   0  0  0  0  0  0  0  0  0  0  0  0
   -2.0801    2.7990    0.0000 C   0  0  0  0  0  0  0  0  0  0  0  0
    7.0770    4.2281    0.0000 H   0  0  0  0  0  0  0  0  0  0  0  0
    6.1139    2.3380    0.0000 H   0  0  0  0  0  0  0  0  0  0  0  0
    5.1869    5.1912    0.0000 H   0  0  0  0  0  0  0  0  0  0  0  0
    4.6873    1.8745    0.0000 H   0  0  0  0  0  0  0  0  0  0  0  0
    3.7603    4.7276    0.0000 H   0  0  0  0  0  0  0  0  0  0  0  0
    2.3337    4.2641    0.0000 H   0  0  0  0  0  0  0  0  0  0  0  0
    3.1341    2.1151    0.0000 H   0  0  0  0  0  0  0  0  0  0  0  0
    1.0588    3.8412    0.0000 H   0  0  0  0  0  0  0  0  0  0  0  0
    3.0038   -0.0933    0.0000 H   0  0  0  0  0  0  0  0  0  0  0  0
    2.7145    1.3152    0.0000 H   0  0  0  0  0  0  0  0  0  0  0  0
   -0.1211    3.7172    0.0000 H   0  0  0  0  0  0  0  0  0  0  0  0
   -1.6065    2.0084    0.0000 H   0  0  0  0  0  0  0  0  0  0  0  0
   -2.1454    1.4419    0.0000 H   0  0  0  0  0  0  0  0  0  0  0  0
   -2.3501    2.0865    0.0000 H   0  0  0  0  0  0  0  0  0  0  0  0
   -1.5347    0.8547    0.0000 H   0  0  0  0  0  0  0  0  0  0  0  0
   -4.5871   -0.3290    0.0000 H   0  0  0  0  0  0  0  0  0  0  0  0
   -7.5857    1.3482    0.0000 H   0  0  0  0  0  0  0  0  0  0  0  0
   -6.7603   -2.1332    0.0000 H   0  0  0  0  0  0  0  0  0  0  0  0
  -10.1784   -3.7094    0.0000 H   0  0  0  0  0  0  0  0  0  0  0  0
  -11.5729   -2.2654    0.0000 H   0  0  0  0  0  0  0  0  0  0  0  0
  -11.7816   -0.7800    0.0000 H   0  0  0  0  0  0  0  0  0  0  0  0
  -11.6334    1.1316    0.0000 H   0  0  0  0  0  0  0  0  0  0  0  0
  -10.9381    2.7492    0.0000 H   0  0  0  0  0  0  0  0  0  0  0  0
   -8.0906    1.8787    0.0000 H   0  0  0  0  0  0  0  0  0  0  0  0
  -10.3280    4.1195    0.0000 H   0  0  0  0  0  0  0  0  0  0  0  0
   -7.5874    2.8993    0.0000 H   0  0  0  0  0  0  0  0  0  0  0  0
   -9.7179    5.4898    0.0000 H   0  0  0  0  0  0  0  0  0  0  0  0
   -6.9773    4.2696    0.0000 H   0  0  0  0  0  0  0  0  0  0  0  0
   -6.3672    5.6399    0.0000 H   0  0  0  0  0  0  0  0  0  0  0  0
   -9.1720    6.6885    0.0000 H   0  0  0  0  0  0  0  0  0  0  0  0
   -5.7571    7.0102    0.0000 H   0  0  0  0  0  0  0  0  0  0  0  0
   -5.9072   10.3610    0.0000 H   0  0  0  0  0  0  0  0  0  0  0  0
   -5.1470    8.3805    0.0000 H   0  0  0  0  0  0  0  0  0  0  0  0
   -7.6993    9.9142    0.0000 H   0  0  0  0  0  0  0  0  0  0  0  0
   -9.4818    7.0984    0.0000 H   0  0  0  0  0  0  0  0  0  0  0  0
  -10.7903    8.3907    0.0000 H   0  0  0  0  0  0  0  0  0  0  0  0
  -10.3937   10.5304    0.0000 H   0  0  0  0  0  0  0  0  0  0  0  0
   -6.6576    9.9464    0.0000 H   0  0  0  0  0  0  0  0  0  0  0  0
   -8.4484   12.6694    0.0000 H   0  0  0  0  0  0  0  0  0  0  0  0
   -6.7998   11.3344    0.0000 H   0  0  0  0  0  0  0  0  0  0  0  0
   -9.7914   11.2039    0.0000 H   0  0  0  0  0  0  0  0  0  0  0  0
   -7.9702    1.0790    0.0000 H   0  0  0  0  0  0  0  0  0  0  0  0
   -6.2152   -2.1308    0.0000 H   0  0  0  0  0  0  0  0  0  0  0  0
   -3.9167   -0.0581    0.0000 H   0  0  0  0  0  0  0  0  0  0  0  0
   -3.7811   -3.5490    0.0000 H   0  0  0  0  0  0  0  0  0  0  0  0
   -0.7679   -4.1491    0.0000 H   0  0  0  0  0  0  0  0  0  0  0  0
   -2.6962   -4.1491    0.0000 H   0  0  0  0  0  0  0  0  0  0  0  0
    0.0800   -3.6595    0.0000 H   0  0  0  0  0  0  0  0  0  0  0  0
    1.1227   -3.4875    0.0000 H   0  0  0  0  0  0  0  0  0  0  0  0
    1.1489   -0.4932    0.0000 H   0  0  0  0  0  0  0  0  0  0  0  0
    2.7043   -0.2402    0.0000 H   0  0  0  0  0  0  0  0  0  0  0  0
    4.5117   -0.5800    0.0000 H   0  0  0  0  0  0  0  0  0  0  0  0
    5.2977   -2.7395    0.0000 H   0  0  0  0  0  0  0  0  0  0  0  0
    3.9986   -4.2877    0.0000 H   0  0  0  0  0  0  0  0  0  0  0  0
    1.8365   -4.0413    0.0000 H   0  0  0  0  0  0  0  0  0  0  0  0
   -6.5801    2.7990    0.0000 H   0  0  0  0  0  0  0  0  0  0  0  0
   -5.4792    5.0623    0.0000 H   0  0  0  0  0  0  0  0  0  0  0  0
   -3.1811    5.0623    0.0000 H   0  0  0  0  0  0  0  0  0  0  0  0
   -0.6247    3.1620    0.0000 H   0  0  0  0  0  0  0  0  0  0  0  0
   -2.0801    4.2990    0.0000 H   0  0  0  0  0  0  0  0  0  0  0  0
   -2.2630    1.3102    0.0000 H   0  0  0  0  0  0  0  0  0  0  0  0
  1  2  1  0
  2  3  1  0
  3  4  1  0
  4  5  1  0
  5  6  1  0
  6  7  1  0
  7  8  1  0
  7  9  1  0
  9 10  1  0
 10 11  1  0
 11 12  1  0
 12 13  1  0
 13 14  1  0
 14 15  1  0
 15 16  1  0
 16 17  2  0
 16 18  1  0
 18 19  1  0
 19 20  1  0
 20 21  1  0
 21 22  1  0
 22 23  1  0
 23 24  1  0
 24 25  1  0
 25 26  1  0
 25 27  1  0
 27 28  1  0
 28 29  1  0
 29 30  1  0
 20 31  1  0
 14 32  1  0
 32 33  1  0
 33 34  1  0
 34 35  1  0
 35 36  1  0
 36 37  1  0
 37 38  1  0
 38 39  1  0
 39 40  1  0
 36 41  1  0
 12 42  1  0
 42 43  1  0
 43 44  1  0
 44 45  1  0
  8  4  1  0
 41  9  1  0
 44 42  1  0
 41  6  1  0
 41  7  1  0
 33 10  1  0
 40 38  1  0
 34 10  1  0
 44 12  1  0
 32 13  1  0
 31 15  1  0
 31 19  1  0
 29 27  1  0
  1 46  1  0
  1 47  1  0
  1 48  1  0
  2 49  1  0
  2 50  1  0
  3 51  1  0
  3 52  1  0
  4 53  1  0
  5 54  1  0
  5 55  1  0
  8 56  1  0
  8 57  1  0
  9 58  1  0
 11 59  1  0
 11 60  1  0
 13 61  1  0
 14 62  1  0
 15 63  1  0
 18 64  1  0
 18 65  1  0
 19 66  1  0
 20 67  1  0
 21 68  1  0
 21 69  1  0
 22 70  1  0
 22 71  1  0
 23 72  1  0
 23 73  1  0
 24 74  1  0
 24 75  1  0
 25 76  1  0
 26 77  1  0
 26 78  1  0
 26 79  1  0
 27 80  1  0
 28 81  1  0
 28 82  1  0
 29 83  1  0
 30 84  1  0
 30 85  1  0
 30 86  1  0
 31 87  1  0
 32 88  1  0
 33 89  1  0
 34 90  1  0
 35 91  1  0
 35 92  1  0
 36 93  1  0
 37 94  1  0
 37 95  1  0
 38 96  1  0
 39 97  1  0
 39 98  1  0
 40 99  1  0
 40100  1  0
 42101  1  0
 43102  1  0
 43103  1  0
 45104  1  0
 45105  1  0
 45106  1  0
M  END
$$$$
