
     RDKit          2D

 79 83  0  0  0  0  0  0  0  0999 V2000
   -2.9488    9.3144    0.0000 C   0  0  0  0  0  0  0  0  0  0  0  0
   -1.9846   10.4635    0.0000 C   0  0  0  0  0  0  0  0  0  0  0  0
   -1.0205   11.6126    0.0000 C   0  0  0  0  0  0  0  0  0  0  0  0
   -0.8356    9.4993    0.0000 C   0  0  0  0  0  0  0  0  0  0  0  0
    0.3135   10.4635    0.0000 N   0  0  0  0  0  0  0  0  0  0  0  0
    0.5740    8.9863    0.0000 C   0  0  0  0  0  0  0  0  0  0  0  0
    0.3135    7.5091    0.0000 C   0  0  0  0  0  0  0  0  0  0  0  0
    0.0530    6.0319    0.0000 C   0  0  0  0  0  0  0  0  0  0  0  0
    1.2021    5.0677    0.0000 C   0  0  0  0  0  0  0  0  0  0  0  0
    0.9416    3.5905    0.0000 C   0  0  0  0  0  0  0  0  0  0  0  0
    0.6811    2.1132    0.0000 O   0  0  0  0  0  0  0  0  0  0  0  0
    1.8302    1.1491    0.0000 C   0  0  0  0  0  0  0  0  0  0  0  0
    2.7944    2.2981    0.0000 C   0  0  0  0  0  0  0  0  0  0  0  0
    3.7586    3.4472    0.0000 C   0  0  0  0  0  0  0  0  0  0  0  0
    4.7228    4.5963    0.0000 C   0  0  0  0  0  0  0  0  0  0  0  0
    5.6869    5.7453    0.0000 C   0  0  0  0  0  0  0  0  0  0  0  0
    6.8689    6.6688    0.0000 C   0  0  0  0  0  0  0  0  0  0  0  0
    7.6638    5.3968    0.0000 C   0  0  0  0  0  0  0  0  0  0  0  0
    6.1150    7.8901    0.0000 C   0  0  0  0  0  0  0  0  0  0  0  0
    5.9322    6.4013    0.0000 C   0  0  0  0  0  0  0  0  0  0  0  0
    4.4434    6.5841    0.0000 C   0  0  0  0  0  0  0  0  0  0  0  0
    4.6262    8.0729    0.0000 C   0  0  0  0  0  0  0  0  0  0  0  0
    4.8090    9.5618    0.0000 C   0  0  0  0  0  0  0  0  0  0  0  0
    3.9435    1.3340    0.0000 O   0  0  0  0  0  0  0  0  0  0  0  0
    5.3530    1.8470    0.0000 O   0  0  0  0  0  0  0  0  0  0  0  0
    0.8660    0.0000    0.0000 C   0  0  0  0  0  0  0  0  0  0  0  0
   -0.4330    0.7500    0.0000 C   0  0  0  0  0  0  0  0  0  0  0  0
   -1.8596    1.2135    0.0000 C   0  0  0  0  0  0  0  0  0  0  0  0
   -2.7413    0.0000    0.0000 C   0  0  0  0  0  0  0  0  0  0  0  0
   -1.8596   -1.2135    0.0000 C   0  0  0  0  0  0  0  0  0  0  0  0
   -0.4330   -0.7500    0.0000 C   0  0  0  0  0  0  0  0  0  0  0  0
    0.1771   -2.1203    0.0000 C   0  0  0  0  0  0  0  0  0  0  0  0
    0.7872   -3.4906    0.0000 Br  0  0  0  0  0  0  0  0  0  0  0  0
   -3.9130    8.1654    0.0000 H   0  0  0  0  0  0  0  0  0  0  0  0
   -4.0979   10.2786    0.0000 H   0  0  0  0  0  0  0  0  0  0  0  0
   -2.3061    8.4297    0.0000 H   0  0  0  0  0  0  0  0  0  0  0  0
   -3.1337   11.4277    0.0000 H   0  0  0  0  0  0  0  0  0  0  0  0
   -0.0563   12.7616    0.0000 H   0  0  0  0  0  0  0  0  0  0  0  0
   -2.1695   12.5767    0.0000 H   0  0  0  0  0  0  0  0  0  0  0  0
   -0.2243   11.2243    0.0000 H   0  0  0  0  0  0  0  0  0  0  0  0
   -1.3823    8.5523    0.0000 H   0  0  0  0  0  0  0  0  0  0  0  0
    0.8265   11.8730    0.0000 H   0  0  0  0  0  0  0  0  0  0  0  0
    2.0740    8.9863    0.0000 H   0  0  0  0  0  0  0  0  0  0  0  0
   -1.1829    7.4043    0.0000 H   0  0  0  0  0  0  0  0  0  0  0  0
    1.7907    7.2486    0.0000 H   0  0  0  0  0  0  0  0  0  0  0  0
   -1.3565    5.5188    0.0000 H   0  0  0  0  0  0  0  0  0  0  0  0
    2.6636    5.4051    0.0000 H   0  0  0  0  0  0  0  0  0  0  0  0
    1.7377    3.5488    0.0000 H   0  0  0  0  0  0  0  0  0  0  0  0
   -0.5356    3.8509    0.0000 H   0  0  0  0  0  0  0  0  0  0  0  0
    2.9793    0.1849    0.0000 H   0  0  0  0  0  0  0  0  0  0  0  0
    2.4080    2.9954    0.0000 H   0  0  0  0  0  0  0  0  0  0  0  0
    2.6095    4.4114    0.0000 H   0  0  0  0  0  0  0  0  0  0  0  0
    5.1068    2.7897    0.0000 H   0  0  0  0  0  0  0  0  0  0  0  0
    5.8718    3.6321    0.0000 H   0  0  0  0  0  0  0  0  0  0  0  0
    3.4647    5.4132    0.0000 H   0  0  0  0  0  0  0  0  0  0  0  0
    6.5896    4.5474    0.0000 H   0  0  0  0  0  0  0  0  0  0  0  0
    8.2171    7.3264    0.0000 H   0  0  0  0  0  0  0  0  0  0  0  0
    8.4587    4.1247    0.0000 H   0  0  0  0  0  0  0  0  0  0  0  0
    8.9359    6.1916    0.0000 H   0  0  0  0  0  0  0  0  0  0  0  0
    6.6219    4.3177    0.0000 H   0  0  0  0  0  0  0  0  0  0  0  0
    7.2970    8.8136    0.0000 H   0  0  0  0  0  0  0  0  0  0  0  0
    5.5693    4.9459    0.0000 H   0  0  0  0  0  0  0  0  0  0  0  0
    7.3325    5.8637    0.0000 H   0  0  0  0  0  0  0  0  0  0  0  0
    3.2614    5.6606    0.0000 H   0  0  0  0  0  0  0  0  0  0  0  0
    3.1374    8.2557    0.0000 H   0  0  0  0  0  0  0  0  0  0  0  0
    4.9918   11.0506    0.0000 H   0  0  0  0  0  0  0  0  0  0  0  0
    3.3202    9.7446    0.0000 H   0  0  0  0  0  0  0  0  0  0  0  0
    6.2978    9.3790    0.0000 H   0  0  0  0  0  0  0  0  0  0  0  0
    6.5021    0.8828    0.0000 H   0  0  0  0  0  0  0  0  0  0  0  0
    1.9631   -1.0230    0.0000 H   0  0  0  0  0  0  0  0  0  0  0  0
   -0.1726    2.2272    0.0000 H   0  0  0  0  0  0  0  0  0  0  0  0
   -1.2495    2.5838    0.0000 H   0  0  0  0  0  0  0  0  0  0  0  0
   -3.1586    1.9635    0.0000 H   0  0  0  0  0  0  0  0  0  0  0  0
   -3.8560    1.0037    0.0000 H   0  0  0  0  0  0  0  0  0  0  0  0
   -3.8560   -1.0037    0.0000 H   0  0  0  0  0  0  0  0  0  0  0  0
   -3.1586   -1.9635    0.0000 H   0  0  0  0  0  0  0  0  0  0  0  0
   -1.4211   -2.6480    0.0000 H   0  0  0  0  0  0  0  0  0  0  0  0
    1.6116   -1.6818    0.0000 H   0  0  0  0  0  0  0  0  0  0  0  0
   -1.1086   -2.8929    0.0000 H   0  0  0  0  0  0  0  0  0  0  0  0
  1  2  1  0
  2  3  1  0
  2  4  1  0
  4  5  1  0
  5  6  1  0
  6  7  1  0
  7  8  1  0
  8  9  2  3
  9 10  1  0
 10 11  1  0
 11 12  1  0
 12 13  1  0
 13 14  1  0
 14 15  1  0
 15 16  1  0
 16 17  1  0
 17 18  1  0
 17 19  1  0
 19 20  1  0
 20 21  1  0
 21 22  1  0
 22 23  1  0
 13 24  1  0
 24 25  1  0
 12 26  1  0
 26 27  1  0
 27 28  1  0
 28 29  1  0
 29 30  1  0
 30 31  1  0
 31 32  1  1
 32 33  1  0
  6  4  1  0
 21 16  1  0
 31 26  1  0
 22 19  1  0
 31 27  1  0
  1 34  1  0
  1 35  1  0
  1 36  1  0
  2 37  1  0
  3 38  1  0
  3 39  1  0
  3 40  1  0
  4 41  1  6
  5 42  1  0
  6 43  1  1
  7 44  1  0
  7 45  1  0
  8 46  1  0
  9 47  1  0
 10 48  1  0
 10 49  1  0
 12 50  1  1
 13 51  1  1
 14 52  1  0
 14 53  1  0
 15 54  1  0
 15 55  1  0
 16 56  1  1
 17 57  1  1
 18 58  1  0
 18 59  1  0
 18 60  1  0
 19 61  1  1
 20 62  1  0
 20 63  1  0
 21 64  1  1
 22 65  1  6
 23 66  1  0
 23 67  1  0
 23 68  1  0
 25 69  1  0
 26 70  1  6
 27 71  1  1
 28 72  1  0
 28 73  1  0
 29 74  1  0
 29 75  1  0
 30 76  1  0
 30 77  1  0
 32 78  1  0
 32 79  1  0
M  END
$$$$
