
     RDKit          2D

 47 49  0  0  0  0  0  0  0  0999 V2000
    3.1499    0.9131    0.0000 C   0  0  0  0  0  0  0  0  0  0  0  0
    1.9598    0.0000    0.0000 C   0  0  0  0  0  0  0  0  0  0  0  0
    1.3858   -1.3858    0.0000 C   0  0  0  0  0  0  0  0  0  0  0  0
   -0.0000   -1.9598    0.0000 C   0  0  0  0  0  0  0  0  0  0  0  0
   -1.3858   -1.3858    0.0000 C   0  0  0  0  0  0  0  0  0  0  0  0
   -1.5816   -2.8730    0.0000 C   0  0  0  0  0  0  0  0  0  0  0  0
   -1.7774   -4.3602    0.0000 C   0  0  0  0  0  0  0  0  0  0  0  0
   -3.0688   -2.6772    0.0000 C   0  0  0  0  0  0  0  0  0  0  0  0
   -4.4827   -2.1765    0.0000 C   0  0  0  0  0  0  0  0  0  0  0  0
   -5.3959   -3.3665    0.0000 N   0  0  0  0  0  0  0  0  0  0  0  0
   -4.5463   -4.6027    0.0000 C   0  0  0  0  0  0  0  0  0  0  0  0
   -5.6869   -5.5769    0.0000 C   0  0  0  0  0  0  0  0  0  0  0  0
   -4.2729   -6.0776    0.0000 O   0  0  0  0  0  0  0  0  0  0  0  0
   -3.1080   -4.1767    0.0000 C   0  0  0  0  0  0  0  0  0  0  0  0
   -1.9598    0.0000    0.0000 C   0  0  0  0  0  0  0  0  0  0  0  0
   -3.1499   -0.9131    0.0000 C   0  0  0  0  0  0  0  0  0  0  0  0
   -1.3858    1.3858    0.0000 C   0  0  0  0  0  0  0  0  0  0  0  0
    0.0000    1.9598    0.0000 P   0  0  0  0  0  0  0  0  0  0  0  0
    0.0000    3.4598    0.0000 O   0  0  0  0  0  0  0  0  0  0  0  0
    1.2990    4.2098    0.0000 O   0  0  0  0  0  0  0  0  0  0  0  0
    1.3858    1.3858    0.0000 O   0  0  0  0  0  0  0  0  0  0  0  0
    4.3399    1.8263    0.0000 H   0  0  0  0  0  0  0  0  0  0  0  0
    4.0630   -0.2769    0.0000 H   0  0  0  0  0  0  0  0  0  0  0  0
    2.2367    2.1032    0.0000 H   0  0  0  0  0  0  0  0  0  0  0  0
    3.1499   -0.9131    0.0000 H   0  0  0  0  0  0  0  0  0  0  0  0
    2.4465   -2.4465    0.0000 H   0  0  0  0  0  0  0  0  0  0  0  0
    0.0972   -2.7511    0.0000 H   0  0  0  0  0  0  0  0  0  0  0  0
   -2.6419   -1.8807    0.0000 H   0  0  0  0  0  0  0  0  0  0  0  0
   -0.8098   -3.0726    0.0000 H   0  0  0  0  0  0  0  0  0  0  0  0
   -1.7904   -5.8601    0.0000 H   0  0  0  0  0  0  0  0  0  0  0  0
   -0.2902   -4.5559    0.0000 H   0  0  0  0  0  0  0  0  0  0  0  0
   -3.2677   -4.5300    0.0000 H   0  0  0  0  0  0  0  0  0  0  0  0
   -3.2647   -1.1900    0.0000 H   0  0  0  0  0  0  0  0  0  0  0  0
   -4.1838   -0.7066    0.0000 H   0  0  0  0  0  0  0  0  0  0  0  0
   -5.7617   -1.3927    0.0000 H   0  0  0  0  0  0  0  0  0  0  0  0
   -6.8954   -3.3273    0.0000 H   0  0  0  0  0  0  0  0  0  0  0  0
   -6.8443   -4.6228    0.0000 H   0  0  0  0  0  0  0  0  0  0  0  0
   -6.4255   -6.8824    0.0000 H   0  0  0  0  0  0  0  0  0  0  0  0
   -3.0165   -5.6739    0.0000 H   0  0  0  0  0  0  0  0  0  0  0  0
   -1.6286   -4.4243    0.0000 H   0  0  0  0  0  0  0  0  0  0  0  0
   -3.2523    0.7613    0.0000 H   0  0  0  0  0  0  0  0  0  0  0  0
   -4.5255   -1.5112    0.0000 H   0  0  0  0  0  0  0  0  0  0  0  0
   -4.0630    0.2769    0.0000 H   0  0  0  0  0  0  0  0  0  0  0  0
   -2.3886   -2.2056    0.0000 H   0  0  0  0  0  0  0  0  0  0  0  0
   -2.8380    1.7614    0.0000 H   0  0  0  0  0  0  0  0  0  0  0  0
   -1.5816    2.8730    0.0000 H   0  0  0  0  0  0  0  0  0  0  0  0
    1.2990    5.7098    0.0000 H   0  0  0  0  0  0  0  0  0  0  0  0
  1  2  1  0
  2  3  1  0
  3  4  2  0
  4  5  1  0
  5  6  1  0
  6  7  1  0
  6  8  1  0
  8  9  1  0
  9 10  1  0
 10 11  1  0
 11 12  1  0
 12 13  1  0
 11 14  1  0
  5 15  1  0
 15 16  1  0
 15 17  1  0
 17 18  1  0
 18 19  1  0
 19 20  1  0
 18 21  1  0
 21  2  1  0
 14  8  1  0
 13 11  1  0
  1 22  1  0
  1 23  1  0
  1 24  1  0
  2 25  1  0
  3 26  1  0
  4 27  1  0
  5 28  1  0
  6 29  1  0
  7 30  1  0
  7 31  1  0
  7 32  1  0
  8 33  1  0
  9 34  1  0
  9 35  1  0
 10 36  1  0
 12 37  1  0
 12 38  1  0
 14 39  1  0
 14 40  1  0
 15 41  1  0
 16 42  1  0
 16 43  1  0
 16 44  1  0
 17 45  1  0
 17 46  1  0
 20 47  1  0
M  END
$$$$
