
     RDKit          2D

 71 75  0  0  0  0  0  0  0  0999 V2000
    2.4246    6.5246    0.0000 C   0  0  0  0  0  0  0  0  0  0  0  0
    3.5737    5.5604    0.0000 C   0  0  0  0  0  0  0  0  0  0  0  0
    4.7228    4.5963    0.0000 C   0  0  0  0  0  0  0  0  0  0  0  0
    5.6869    5.7453    0.0000 O   0  0  0  0  0  0  0  0  0  0  0  0
    5.8718    3.6321    0.0000 C   0  0  0  0  0  0  0  0  0  0  0  0
    7.0209    2.6679    0.0000 C   0  0  0  0  0  0  0  0  0  0  0  0
    3.7586    3.4472    0.0000 C   0  0  0  0  0  0  0  0  0  0  0  0
    2.7944    2.2981    0.0000 C   0  0  0  0  0  0  0  0  0  0  0  0
    1.8302    1.1491    0.0000 C   0  0  0  0  0  0  0  0  0  0  0  0
    0.8660    0.0000    0.0000 C   0  0  0  0  0  0  0  0  0  0  0  0
   -0.4330    0.7500    0.0000 C   0  0  0  0  0  0  0  0  0  0  0  0
   -1.9102    1.0105    0.0000 C   0  0  0  0  0  0  0  0  0  0  0  0
   -3.3874    1.2709    0.0000 Si  0  0  0  0  0  4  0  0  0  0  0  0
   -4.6865    2.0209    0.0000 C   0  0  0  0  0  0  0  0  0  0  0  0
   -3.3874    2.7709    0.0000 C   0  0  0  0  0  0  0  0  0  0  0  0
   -3.9005    4.1805    0.0000 C   0  0  0  0  0  0  0  0  0  0  0  0
   -1.9102    3.0314    0.0000 C   0  0  0  0  0  0  0  0  0  0  0  0
   -0.4330   -0.7500    0.0000 C   0  0  0  0  0  0  0  0  0  0  0  0
   -1.7321   -1.5000    0.0000 C   0  0  0  0  0  0  0  0  0  0  0  0
   -3.0311   -2.2500    0.0000 C   0  0  0  0  0  0  0  0  0  0  0  0
   -1.7321   -3.0000    0.0000 C   0  0  0  0  0  0  0  0  0  0  0  0
   -1.7321   -4.5000    0.0000 C   0  0  0  0  0  0  0  0  0  0  0  0
   -0.2321   -4.5000    0.0000 Br  0  0  0  0  0  0  0  0  0  0  0  0
   -1.7321   -6.0000    0.0000 C   0  0  0  0  0  0  0  0  0  0  0  0
   -1.7321   -7.5000    0.0000 C   0  0  0  0  0  0  0  0  0  0  0  0
   -1.7321   -9.0000    0.0000 C   0  0  0  0  0  0  0  0  0  0  0  0
   -0.2321   -7.5000    0.0000 C   0  0  0  0  0  0  0  0  0  0  0  0
   -0.4330   -2.2500    0.0000 C   0  0  0  0  0  0  0  0  0  0  0  0
    0.8660   -3.0000    0.0000 Cl  0  0  0  0  0  0  0  0  0  0  0  0
    1.2756    7.4888    0.0000 H   0  0  0  0  0  0  0  0  0  0  0  0
    3.3888    7.6737    0.0000 H   0  0  0  0  0  0  0  0  0  0  0  0
    1.4604    5.3756    0.0000 H   0  0  0  0  0  0  0  0  0  0  0  0
    2.9259    4.9564    0.0000 H   0  0  0  0  0  0  0  0  0  0  0  0
    4.5379    6.7095    0.0000 H   0  0  0  0  0  0  0  0  0  0  0  0
    7.1849    5.6669    0.0000 H   0  0  0  0  0  0  0  0  0  0  0  0
    6.9689    4.6551    0.0000 H   0  0  0  0  0  0  0  0  0  0  0  0
    5.3894    2.8892    0.0000 H   0  0  0  0  0  0  0  0  0  0  0  0
    8.1700    1.7037    0.0000 H   0  0  0  0  0  0  0  0  0  0  0  0
    7.9851    3.8170    0.0000 H   0  0  0  0  0  0  0  0  0  0  0  0
    6.0567    1.5188    0.0000 H   0  0  0  0  0  0  0  0  0  0  0  0
    4.3626    2.7994    0.0000 H   0  0  0  0  0  0  0  0  0  0  0  0
    3.0157    3.9296    0.0000 H   0  0  0  0  0  0  0  0  0  0  0  0
    1.6453    3.2623    0.0000 H   0  0  0  0  0  0  0  0  0  0  0  0
    3.9435    1.3340    0.0000 H   0  0  0  0  0  0  0  0  0  0  0  0
    0.9095    2.1364    0.0000 H   0  0  0  0  0  0  0  0  0  0  0  0
    2.9793    0.1849    0.0000 H   0  0  0  0  0  0  0  0  0  0  0  0
    1.8302   -1.1491    0.0000 H   0  0  0  0  0  0  0  0  0  0  0  0
   -0.1294    2.0654    0.0000 H   0  0  0  0  0  0  0  0  0  0  0  0
   -1.3611    2.2437    0.0000 H   0  0  0  0  0  0  0  0  0  0  0  0
   -2.1707   -0.4667    0.0000 H   0  0  0  0  0  0  0  0  0  0  0  0
   -3.9005   -0.1386    0.0000 H   0  0  0  0  0  0  0  0  0  0  0  0
   -5.6507    0.8719    0.0000 H   0  0  0  0  0  0  0  0  0  0  0  0
   -5.6738    2.9416    0.0000 H   0  0  0  0  0  0  0  0  0  0  0  0
   -4.4135    5.5900    0.0000 H   0  0  0  0  0  0  0  0  0  0  0  0
   -2.8179    4.7321    0.0000 H   0  0  0  0  0  0  0  0  0  0  0  0
   -5.2159    3.8768    0.0000 H   0  0  0  0  0  0  0  0  0  0  0  0
   -0.4330    3.2919    0.0000 H   0  0  0  0  0  0  0  0  0  0  0  0
   -1.9738    4.2448    0.0000 H   0  0  0  0  0  0  0  0  0  0  0  0
   -1.3611    1.7982    0.0000 H   0  0  0  0  0  0  0  0  0  0  0  0
   -3.9953   -1.1009    0.0000 H   0  0  0  0  0  0  0  0  0  0  0  0
   -3.9953   -3.3991    0.0000 H   0  0  0  0  0  0  0  0  0  0  0  0
   -3.2321   -4.5000    0.0000 H   0  0  0  0  0  0  0  0  0  0  0  0
   -3.2321   -6.0000    0.0000 H   0  0  0  0  0  0  0  0  0  0  0  0
   -0.2432   -5.8172    0.0000 H   0  0  0  0  0  0  0  0  0  0  0  0
   -3.2321   -7.5000    0.0000 H   0  0  0  0  0  0  0  0  0  0  0  0
   -1.7321  -10.5000    0.0000 H   0  0  0  0  0  0  0  0  0  0  0  0
   -3.2321   -9.0000    0.0000 H   0  0  0  0  0  0  0  0  0  0  0  0
   -0.2432   -9.1828    0.0000 H   0  0  0  0  0  0  0  0  0  0  0  0
    1.2679   -7.5000    0.0000 H   0  0  0  0  0  0  0  0  0  0  0  0
   -0.0492   -8.9888    0.0000 H   0  0  0  0  0  0  0  0  0  0  0  0
   -0.0492   -6.0112    0.0000 H   0  0  0  0  0  0  0  0  0  0  0  0
  1  2  1  0
  2  3  1  0
  3  4  1  0
  3  5  1  0
  5  6  1  0
  3  7  1  0
  7  8  1  0
  8  9  1  0
  9 10  1  0
 10 11  1  0
 11 12  1  0
 12 13  1  0
 13 14  1  0
 14 15  1  0
 15 16  1  0
 15 17  1  0
 11 18  1  0
 18 19  1  0
 19 20  1  1
 21 20  1  1
 21 22  1  0
 22 23  1  0
 22 24  1  0
 24 25  1  0
 25 26  1  0
 25 27  1  0
 21 28  1  0
 28 29  1  1
 18 10  1  0
 21 19  1  0
 15 13  1  0
 28 18  1  0
 28 19  1  0
  1 30  1  0
  1 31  1  0
  1 32  1  0
  2 33  1  0
  2 34  1  0
  4 35  1  0
  5 36  1  0
  5 37  1  0
  6 38  1  0
  6 39  1  0
  6 40  1  0
  7 41  1  0
  7 42  1  0
  8 43  1  0
  8 44  1  0
  9 45  1  0
  9 46  1  0
 10 47  1  1
 11 48  1  6
 12 49  1  0
 12 50  1  0
 13 51  1  6
 14 52  1  0
 14 53  1  0
 16 54  1  0
 16 55  1  0
 16 56  1  0
 17 57  1  0
 17 58  1  0
 17 59  1  0
 20 60  1  0
 20 61  1  0
 22 62  1  1
 24 63  1  0
 24 64  1  0
 25 65  1  0
 26 66  1  0
 26 67  1  0
 26 68  1  0
 27 69  1  0
 27 70  1  0
 27 71  1  0
M  END
$$$$
