
     RDKit          2D

 65 68  0  0  0  0  0  0  0  0999 V2000
   -2.7661    5.0058    0.0000 C   0  0  0  0  0  0  0  0  0  0  0  0
   -1.6170    4.0416    0.0000 C   0  0  0  0  0  0  0  0  0  0  0  0
   -0.4679    3.0774    0.0000 C   0  0  0  0  0  0  0  0  0  0  0  0
    0.6811    2.1132    0.0000 C   0  0  0  0  0  0  0  0  0  0  0  0
    1.8302    1.1491    0.0000 C   0  0  0  0  0  0  0  0  0  0  0  0
    2.9793    0.1849    0.0000 C   0  0  0  0  0  0  0  0  0  0  0  0
    4.1283   -0.7793    0.0000 C   0  0  0  0  0  0  0  0  0  0  0  0
    5.2774   -1.7435    0.0000 C   0  0  0  0  0  0  0  0  0  0  0  0
    6.4265   -2.7077    0.0000 C   0  0  0  0  0  0  0  0  0  0  0  0
    7.5755   -3.6718    0.0000 C   0  0  0  0  0  0  0  0  0  0  0  0
    8.7246   -4.6360    0.0000 O   0  0  0  0  0  0  0  0  0  0  0  0
    0.8660    0.0000    0.0000 C   0  0  0  0  0  0  0  0  0  0  0  0
   -0.4330    0.7500    0.0000 C   0  0  0  0  0  0  0  0  0  0  0  0
   -0.4330   -0.7500    0.0000 C   0  0  0  0  0  0  0  0  0  0  0  0
   -1.7321    0.0000    0.0000 C   0  0  0  0  0  0  0  0  0  0  0  0
   -2.4821    1.2990    0.0000 C   0  0  0  0  0  0  0  0  0  0  0  0
   -3.9821    1.2990    0.0000 C   0  0  0  0  0  0  0  0  0  0  0  0
   -4.7321   -0.0000    0.0000 C   0  0  0  0  0  0  0  0  0  0  0  0
   -3.9821   -1.2990    0.0000 C   0  0  0  0  0  0  0  0  0  0  0  0
   -2.4821   -1.2990    0.0000 C   0  0  0  0  0  0  0  0  0  0  0  0
   -3.1674   -0.7740    0.0000 C   0  0  0  0  0  0  0  0  0  0  0  0
   -3.9156   -0.2472    0.0000 C   0  0  0  0  0  0  0  0  0  0  0  0
   -5.7028   -2.2925    0.0000 C   0  0  0  0  0  0  0  0  0  0  0  0
   -6.2508   -3.6888    0.0000 O   0  0  0  0  0  0  0  0  0  0  0  0
   -3.9909    0.4626    0.0000 C   0  0  0  0  0  0  0  0  0  0  0  0
   -3.9151    5.9700    0.0000 H   0  0  0  0  0  0  0  0  0  0  0  0
   -1.8019    6.1549    0.0000 H   0  0  0  0  0  0  0  0  0  0  0  0
   -3.7302    3.8567    0.0000 H   0  0  0  0  0  0  0  0  0  0  0  0
   -2.7141    3.0186    0.0000 H   0  0  0  0  0  0  0  0  0  0  0  0
   -0.6528    5.1907    0.0000 H   0  0  0  0  0  0  0  0  0  0  0  0
   -1.2849    1.8194    0.0000 H   0  0  0  0  0  0  0  0  0  0  0  0
    0.4963    4.2265    0.0000 H   0  0  0  0  0  0  0  0  0  0  0  0
    0.0362    1.6447    0.0000 H   0  0  0  0  0  0  0  0  0  0  0  0
    1.6453    3.2623    0.0000 H   0  0  0  0  0  0  0  0  0  0  0  0
    2.7944    2.2981    0.0000 H   0  0  0  0  0  0  0  0  0  0  0  0
    3.9435    1.3340    0.0000 H   0  0  0  0  0  0  0  0  0  0  0  0
    2.3837   -0.7322    0.0000 H   0  0  0  0  0  0  0  0  0  0  0  0
    3.1642   -1.9284    0.0000 H   0  0  0  0  0  0  0  0  0  0  0  0
    5.0925    0.3698    0.0000 H   0  0  0  0  0  0  0  0  0  0  0  0
    6.2416   -0.5944    0.0000 H   0  0  0  0  0  0  0  0  0  0  0  0
    4.3132   -2.8925    0.0000 H   0  0  0  0  0  0  0  0  0  0  0  0
    5.4623   -3.8567    0.0000 H   0  0  0  0  0  0  0  0  0  0  0  0
    7.3907   -1.5586    0.0000 H   0  0  0  0  0  0  0  0  0  0  0  0
    8.5397   -2.5228    0.0000 H   0  0  0  0  0  0  0  0  0  0  0  0
    6.6114   -4.8209    0.0000 H   0  0  0  0  0  0  0  0  0  0  0  0
    8.4641   -6.1132    0.0000 H   0  0  0  0  0  0  0  0  0  0  0  0
    1.4616   -0.9171    0.0000 H   0  0  0  0  0  0  0  0  0  0  0  0
   -0.2849    1.9559    0.0000 H   0  0  0  0  0  0  0  0  0  0  0  0
   -0.4330   -2.2500    0.0000 H   0  0  0  0  0  0  0  0  0  0  0  0
   -2.9206    2.7335    0.0000 H   0  0  0  0  0  0  0  0  0  0  0  0
   -1.0725    1.8121    0.0000 H   0  0  0  0  0  0  0  0  0  0  0  0
   -4.7321    2.5981    0.0000 H   0  0  0  0  0  0  0  0  0  0  0  0
   -5.7550   -1.0971    0.0000 H   0  0  0  0  0  0  0  0  0  0  0  0
   -6.0803    0.6575    0.0000 H   0  0  0  0  0  0  0  0  0  0  0  0
   -3.3719   -2.6693    0.0000 H   0  0  0  0  0  0  0  0  0  0  0  0
   -5.2256   -2.1379    0.0000 H   0  0  0  0  0  0  0  0  0  0  0  0
   -1.7321   -2.5981    0.0000 H   0  0  0  0  0  0  0  0  0  0  0  0
   -3.3294   -3.1219    0.0000 H   0  0  0  0  0  0  0  0  0  0  0  0
   -4.8824   -2.8879    0.0000 H   0  0  0  0  0  0  0  0  0  0  0  0
   -6.6480   -1.0382    0.0000 H   0  0  0  0  0  0  0  0  0  0  0  0
   -7.0991   -1.7445    0.0000 H   0  0  0  0  0  0  0  0  0  0  0  0
   -4.4806   -3.1621    0.0000 H   0  0  0  0  0  0  0  0  0  0  0  0
   -7.7340   -3.9124    0.0000 H   0  0  0  0  0  0  0  0  0  0  0  0
   -6.7434    0.3355    0.0000 H   0  0  0  0  0  0  0  0  0  0  0  0
   -6.0169    1.8987    0.0000 H   0  0  0  0  0  0  0  0  0  0  0  0
  1  2  1  0
  2  3  1  0
  3  4  1  0
  4  5  1  0
  5  6  1  0
  6  7  1  0
  7  8  1  0
  8  9  1  0
  9 10  1  0
 10 11  1  0
  5 12  1  0
 12 13  1  0
 13 14  1  0
 14 15  1  0
 15 16  1  0
 16 17  1  0
 17 18  1  0
 18 19  1  0
 19 20  1  0
 20 21  1  0
 21 22  1  0
 22 23  1  0
 23 24  1  0
 22 25  1  0
 14 12  1  0
 20 15  1  0
 15 13  1  0
 25 17  1  0
  1 26  1  0
  1 27  1  0
  1 28  1  0
  2 29  1  0
  2 30  1  0
  3 31  1  0
  3 32  1  0
  4 33  1  0
  4 34  1  0
  5 35  1  0
  6 36  1  0
  6 37  1  0
  7 38  1  0
  7 39  1  0
  8 40  1  0
  8 41  1  0
  9 42  1  0
  9 43  1  0
 10 44  1  0
 10 45  1  0
 11 46  1  0
 12 47  1  0
 13 48  1  0
 14 49  1  0
 16 50  1  0
 16 51  1  0
 17 52  1  0
 18 53  1  0
 18 54  1  0
 19 55  1  0
 19 56  1  0
 20 57  1  0
 21 58  1  0
 21 59  1  0
 22 60  1  0
 23 61  1  0
 23 62  1  0
 24 63  1  0
 25 64  1  0
 25 65  1  0
M  END
$$$$
