
     RDKit          2D

 25 26  0  0  0  0  0  0  0  0999 V2000
    0.6811    2.1132    0.0000 C   0  0  0  0  0  0  0  0  0  0  0  0
    1.8302    1.1491    0.0000 C   0  0  0  0  0  0  0  0  0  0  0  0
    2.9793    0.1849    0.0000 C   0  0  0  0  0  0  0  0  0  0  0  0
    0.8660    0.0000    0.0000 C   0  0  0  0  0  0  0  0  0  0  0  0
   -0.4330    0.7500    0.0000 C   0  0  0  0  0  0  0  0  0  0  0  0
   -0.4330   -0.7500    0.0000 C   0  0  0  0  0  0  0  0  0  0  0  0
    0.0800   -2.1595    0.0000 N   0  0  0  0  0  0  0  0  0  0  0  0
    1.2291   -3.1237    0.0000 C   0  0  0  0  0  0  0  0  0  0  0  0
   -0.1805   -3.6368    0.0000 C   0  0  0  0  0  0  0  0  0  0  0  0
    0.0800   -5.1140    0.0000 O   0  0  0  0  0  0  0  0  0  0  0  0
   -0.2496    2.8942    0.0000 H   0  0  0  0  0  0  0  0  0  0  0  0
    0.0362    1.6447    0.0000 H   0  0  0  0  0  0  0  0  0  0  0  0
    1.6453    3.2623    0.0000 H   0  0  0  0  0  0  0  0  0  0  0  0
    2.7944    2.2981    0.0000 H   0  0  0  0  0  0  0  0  0  0  0  0
    4.1283   -0.7793    0.0000 H   0  0  0  0  0  0  0  0  0  0  0  0
    2.3837   -0.7322    0.0000 H   0  0  0  0  0  0  0  0  0  0  0  0
    3.9435    1.3340    0.0000 H   0  0  0  0  0  0  0  0  0  0  0  0
    1.4616   -0.9171    0.0000 H   0  0  0  0  0  0  0  0  0  0  0  0
   -1.9102    1.0105    0.0000 H   0  0  0  0  0  0  0  0  0  0  0  0
   -0.3302    1.7288    0.0000 H   0  0  0  0  0  0  0  0  0  0  0  0
   -1.9102   -1.0105    0.0000 H   0  0  0  0  0  0  0  0  0  0  0  0
    2.3782   -2.1595    0.0000 H   0  0  0  0  0  0  0  0  0  0  0  0
    1.9791   -4.4228    0.0000 H   0  0  0  0  0  0  0  0  0  0  0  0
   -1.6805   -3.6368    0.0000 H   0  0  0  0  0  0  0  0  0  0  0  0
   -1.0690   -6.0781    0.0000 H   0  0  0  0  0  0  0  0  0  0  0  0
  1  2  1  0
  2  3  1  0
  2  4  1  0
  4  5  1  0
  5  6  1  0
  6  7  1  0
  7  8  1  0
  8  9  1  0
  9 10  1  0
  6  4  1  0
  9  7  1  0
  1 11  1  0
  1 12  1  0
  1 13  1  0
  2 14  1  0
  3 15  1  0
  3 16  1  0
  3 17  1  0
  4 18  1  0
  5 19  1  0
  5 20  1  0
  6 21  1  0
  8 22  1  0
  8 23  1  0
  9 24  1  0
 10 25  1  0
M  END
$$$$
