
     RDKit          2D

 93104  0  0  0  0  0  0  0  0999 V2000
   -7.6224    0.4085    0.0000 C   0  0  0  0  0  0  0  0  0  0  0  0
   -7.5401   -1.0892    0.0000 C   0  0  0  0  0  0  0  0  0  0  0  0
   -8.8539   -1.8132    0.0000 C   0  0  0  0  0  0  0  0  0  0  0  0
   -9.1070   -3.2917    0.0000 C   0  0  0  0  0  0  0  0  0  0  0  0
   -8.1088   -4.4114    0.0000 C   0  0  0  0  0  0  0  0  0  0  0  0
   -6.6111   -4.3291    0.0000 C   0  0  0  0  0  0  0  0  0  0  0  0
   -4.3412   -5.4375    0.0000 C   0  0  0  0  0  0  0  0  0  0  0  0
   -4.4980   -3.9457    0.0000 C   0  0  0  0  0  0  0  0  0  0  0  0
   -5.7416   -3.1069    0.0000 C   0  0  0  0  0  0  0  0  0  0  0  0
   -6.1550   -1.6650    0.0000 C   0  0  0  0  0  0  0  0  0  0  0  0
   -5.5449   -0.2947    0.0000 C   0  0  0  0  0  0  0  0  0  0  0  0
   -7.0326   -0.1032    0.0000 N   0  0  0  0  0  0  0  0  0  0  0  0
   -7.6107    1.2809    0.0000 F   0  0  0  0  0  0  0  0  0  0  0  0
   -4.1967    0.3629    0.0000 N   0  0  0  0  0  0  0  0  0  0  0  0
   -2.7413    0.0000    0.0000 C   0  0  0  0  0  0  0  0  0  0  0  0
   -1.8596    1.2135    0.0000 C   0  0  0  0  0  0  0  0  0  0  0  0
   -0.7449    2.2172    0.0000 C   0  0  0  0  0  0  0  0  0  0  0  0
   -0.4330    0.7500    0.0000 C   0  0  0  0  0  0  0  0  0  0  0  0
    0.8660    0.0000    0.0000 O   0  0  0  0  0  0  0  0  0  0  0  0
   -0.4330   -0.7500    0.0000 C   0  0  0  0  0  0  0  0  0  0  0  0
    0.1771   -2.1203    0.0000 O   0  0  0  0  0  0  0  0  0  0  0  0
   -1.8596   -1.2135    0.0000 C   0  0  0  0  0  0  0  0  0  0  0  0
   -1.9642   -2.7099    0.0000 C   0  0  0  0  0  0  0  0  0  0  0  0
   -0.5007   -2.3810    0.0000 N   0  0  0  0  0  0  0  0  0  0  0  0
    0.5159   -3.4839    0.0000 C   0  0  0  0  0  0  0  0  0  0  0  0
    1.8484   -4.1727    0.0000 C   0  0  0  0  0  0  0  0  0  0  0  0
    1.7786   -2.6743    0.0000 C   0  0  0  0  0  0  0  0  0  0  0  0
    3.2421   -2.3454    0.0000 N   0  0  0  0  0  2  0  0  0  0  0  0
    3.6890   -0.9135    0.0000 C   0  0  0  0  0  0  0  0  0  0  0  0
    4.1359    0.5184    0.0000 S   0  0  0  0  0  1  0  0  0  0  0  0
   -3.0062   -3.7889    0.0000 C   0  0  0  0  0  0  0  0  0  0  0  0
   -2.8494   -5.2807    0.0000 C   0  0  0  0  0  0  0  0  0  0  0  0
   -1.6359   -4.3990    0.0000 C   0  0  0  0  0  0  0  0  0  0  0  0
   -0.5569   -5.4410    0.0000 N   0  0  0  0  0  0  0  0  0  0  0  0
   -0.7971   -3.1554    0.0000 O   0  0  0  0  0  0  0  0  0  0  0  0
   -9.2285   -5.4095    0.0000 C   0  0  0  0  0  0  0  0  0  0  0  0
  -10.3483   -6.4076    0.0000 C   0  0  0  0  0  0  0  0  0  0  0  0
   -8.2304   -6.5292    0.0000 C   0  0  0  0  0  0  0  0  0  0  0  0
  -10.2267   -4.2898    0.0000 C   0  0  0  0  0  0  0  0  0  0  0  0
  -11.2248   -3.1701    0.0000 C   0  0  0  0  0  0  0  0  0  0  0  0
  -12.3445   -4.1682    0.0000 C   0  0  0  0  0  0  0  0  0  0  0  0
  -13.5984   -3.3450    0.0000 C   0  0  0  0  0  0  0  0  0  0  0  0
  -12.8151   -5.5925    0.0000 C   0  0  0  0  0  0  0  0  0  0  0  0
  -14.2995   -5.3763    0.0000 C   0  0  0  0  0  0  0  0  0  0  0  0
  -11.3464   -5.2879    0.0000 C   0  0  0  0  0  0  0  0  0  0  0  0
   -8.9606    1.0862    0.0000 H   0  0  0  0  0  0  0  0  0  0  0  0
   -6.4757    1.3756    0.0000 H   0  0  0  0  0  0  0  0  0  0  0  0
  -10.3270   -1.5306    0.0000 H   0  0  0  0  0  0  0  0  0  0  0  0
   -9.2673   -0.3713    0.0000 H   0  0  0  0  0  0  0  0  0  0  0  0
  -10.4189   -2.5645    0.0000 H   0  0  0  0  0  0  0  0  0  0  0  0
   -7.3718   -5.7178    0.0000 H   0  0  0  0  0  0  0  0  0  0  0  0
   -5.8871   -5.6429    0.0000 H   0  0  0  0  0  0  0  0  0  0  0  0
   -5.2852   -6.6032    0.0000 H   0  0  0  0  0  0  0  0  0  0  0  0
   -5.7838   -4.7182    0.0000 H   0  0  0  0  0  0  0  0  0  0  0  0
   -4.2728   -2.8023    0.0000 H   0  0  0  0  0  0  0  0  0  0  0  0
   -7.0307   -0.4471    0.0000 H   0  0  0  0  0  0  0  0  0  0  0  0
   -5.6059    1.2041    0.0000 H   0  0  0  0  0  0  0  0  0  0  0  0
   -8.2039   -1.0403    0.0000 H   0  0  0  0  0  0  0  0  0  0  0  0
   -4.3535    1.8547    0.0000 H   0  0  0  0  0  0  0  0  0  0  0  0
   -3.4223    1.3365    0.0000 H   0  0  0  0  0  0  0  0  0  0  0  0
   -2.8437    2.3456    0.0000 H   0  0  0  0  0  0  0  0  0  0  0  0
   -1.5398    3.4893    0.0000 H   0  0  0  0  0  0  0  0  0  0  0  0
    0.6459    2.7791    0.0000 H   0  0  0  0  0  0  0  0  0  0  0  0
    1.6625   -1.9115    0.0000 H   0  0  0  0  0  0  0  0  0  0  0  0
   -0.6776   -2.1370    0.0000 H   0  0  0  0  0  0  0  0  0  0  0  0
   -0.9348   -3.8009    0.0000 H   0  0  0  0  0  0  0  0  0  0  0  0
    0.2794   -1.0998    0.0000 H   0  0  0  0  0  0  0  0  0  0  0  0
   -0.0782   -4.8613    0.0000 H   0  0  0  0  0  0  0  0  0  0  0  0
    1.5794   -5.6483    0.0000 H   0  0  0  0  0  0  0  0  0  0  0  0
    3.3361   -4.3641    0.0000 H   0  0  0  0  0  0  0  0  0  0  0  0
    1.2005   -1.2901    0.0000 H   0  0  0  0  0  0  0  0  0  0  0  0
    5.1209   -1.3604    0.0000 H   0  0  0  0  0  0  0  0  0  0  0  0
    2.2571   -0.4666    0.0000 H   0  0  0  0  0  0  0  0  0  0  0  0
   -2.3119   -6.6810    0.0000 H   0  0  0  0  0  0  0  0  0  0  0  0
   -0.9198   -6.8964    0.0000 H   0  0  0  0  0  0  0  0  0  0  0  0
    0.9246   -5.2064    0.0000 H   0  0  0  0  0  0  0  0  0  0  0  0
    0.6294   -3.6190    0.0000 H   0  0  0  0  0  0  0  0  0  0  0  0
  -11.4680   -7.4058    0.0000 H   0  0  0  0  0  0  0  0  0  0  0  0
   -9.4941   -7.6407    0.0000 H   0  0  0  0  0  0  0  0  0  0  0  0
  -11.5877   -5.5627    0.0000 H   0  0  0  0  0  0  0  0  0  0  0  0
   -7.2323   -7.6489    0.0000 H   0  0  0  0  0  0  0  0  0  0  0  0
   -9.2201   -7.6564    0.0000 H   0  0  0  0  0  0  0  0  0  0  0  0
   -6.9974   -5.6750    0.0000 H   0  0  0  0  0  0  0  0  0  0  0  0
  -12.0790   -1.9371    0.0000 H   0  0  0  0  0  0  0  0  0  0  0  0
  -10.3799   -1.9307    0.0000 H   0  0  0  0  0  0  0  0  0  0  0  0
  -14.8523   -2.5218    0.0000 H   0  0  0  0  0  0  0  0  0  0  0  0
  -14.8164   -4.2205    0.0000 H   0  0  0  0  0  0  0  0  0  0  0  0
  -12.9342   -2.0001    0.0000 H   0  0  0  0  0  0  0  0  0  0  0  0
  -12.7703   -7.0918    0.0000 H   0  0  0  0  0  0  0  0  0  0  0  0
  -15.7838   -5.1601    0.0000 H   0  0  0  0  0  0  0  0  0  0  0  0
  -14.5156   -6.8606    0.0000 H   0  0  0  0  0  0  0  0  0  0  0  0
  -14.6297   -3.9131    0.0000 H   0  0  0  0  0  0  0  0  0  0  0  0
  -11.0163   -6.7512    0.0000 H   0  0  0  0  0  0  0  0  0  0  0  0
  1  2  2  3
  2  3  1  0
  3  4  1  0
  4  5  1  0
  5  6  1  0
  6  7  1  0
  7  8  1  0
  8  9  1  0
  9 10  1  0
 10 11  1  0
 11 12  1  0
 12 13  1  0
 11 14  1  0
 14 15  1  0
 15 16  1  0
 16 17  1  0
 17 18  1  0
 18 19  1  6
 19 20  1  0
 20 21  1  1
 20 22  1  0
 22 23  1  0
 23 24  1  0
 24 25  1  0
 25 26  1  0
 26 27  1  0
 27 28  1  0
 28 29  1  0
 29 30  1  0
 23 31  1  0
 31 32  1  0
 32 33  1  0
 33 34  1  0
 33 35  1  6
  5 36  1  0
 36 37  1  0
 36 38  1  0
 39 36  1  6
 39 40  1  0
 40 41  1  0
 41 42  1  6
 41 43  1  0
 43 44  1  0
 43 45  1  0
 10  2  1  0
 22 15  1  0
 27 25  1  0
 31 33  1  6
 45 39  1  0
 39  4  1  0
 45 41  1  0
  9  6  1  0
 18 16  1  0
 32  7  1  0
 31  8  1  0
 20 18  1  0
  1 46  1  0
  1 47  1  0
  3 48  1  0
  3 49  1  0
  4 50  1  1
  5 51  1  6
  6 52  1  6
  7 53  1  6
  8 54  1  6
  9 55  1  6
 10 56  1  1
 11 57  1  1
 12 58  1  0
 14 59  1  0
 15 60  1  1
 16 61  1  6
 17 62  1  0
 17 63  1  0
 21 64  1  0
 22 65  1  6
 23 66  1  6
 24 67  1  0
 25 68  1  1
 26 69  1  0
 26 70  1  0
 27 71  1  1
 29 72  1  0
 29 73  1  0
 32 74  1  1
 34 75  1  0
 34 76  1  0
 35 77  1  0
 37 78  1  0
 37 79  1  0
 37 80  1  0
 38 81  1  0
 38 82  1  0
 38 83  1  0
 40 84  1  0
 40 85  1  0
 42 86  1  0
 42 87  1  0
 42 88  1  0
 43 89  1  1
 44 90  1  0
 44 91  1  0
 44 92  1  0
 45 93  1  6
M  RAD  2  28   2  30   2
M  END
$$$$
