
     RDKit          2D

 58 62  0  0  0  0  0  0  0  0999 V2000
    1.1044   -3.3107    0.0000 C   0  0  0  0  0  0  0  0  0  0  0  0
   -0.1946   -2.5607    0.0000 C   0  0  0  0  0  0  0  0  0  0  0  0
   -1.4937   -1.8107    0.0000 C   0  0  0  0  0  0  0  0  0  0  0  0
   -2.9937   -1.8107    0.0000 C   0  0  0  0  0  0  0  0  0  0  0  0
   -2.6054   -3.2595    0.0000 C   0  0  0  0  0  0  0  0  0  0  0  0
   -4.0543   -0.7500    0.0000 C   0  0  0  0  0  0  0  0  0  0  0  0
   -4.8043   -2.0490    0.0000 C   0  0  0  0  0  0  0  0  0  0  0  0
   -5.5543   -3.3481    0.0000 C   0  0  0  0  0  0  0  0  0  0  0  0
   -6.3043   -4.6471    0.0000 C   0  0  0  0  0  0  0  0  0  0  0  0
   -6.8534   -2.5981    0.0000 C   0  0  0  0  0  0  0  0  0  0  0  0
   -7.8176   -3.7471    0.0000 C   0  0  0  0  0  0  0  0  0  0  0  0
   -8.7817   -4.8962    0.0000 C   0  0  0  0  0  0  0  0  0  0  0  0
  -10.2589   -4.6357    0.0000 C   0  0  0  0  0  0  0  0  0  0  0  0
  -10.7720   -3.2262    0.0000 C   0  0  0  0  0  0  0  0  0  0  0  0
   -9.8078   -2.0771    0.0000 C   0  0  0  0  0  0  0  0  0  0  0  0
   -9.2948   -3.4867    0.0000 C   0  0  0  0  0  0  0  0  0  0  0  0
   -8.3306   -2.3376    0.0000 N   0  0  0  0  0  0  0  0  0  0  0  0
   -4.0543    0.7500    0.0000 C   0  0  0  0  0  0  0  0  0  0  0  0
   -2.9937    1.8107    0.0000 C   0  0  0  0  0  0  0  0  0  0  0  0
   -1.4937    1.8107    0.0000 C   0  0  0  0  0  0  0  0  0  0  0  0
   -0.4330    0.7500    0.0000 C   0  0  0  0  0  0  0  0  0  0  0  0
    0.8660    0.0000    0.0000 C   0  0  0  0  0  0  0  0  0  0  0  0
   -0.4330   -0.7500    0.0000 C   0  0  0  0  0  0  0  0  0  0  0  0
    2.4034   -4.0607    0.0000 H   0  0  0  0  0  0  0  0  0  0  0  0
    0.3544   -4.6097    0.0000 H   0  0  0  0  0  0  0  0  0  0  0  0
    2.0072   -2.1127    0.0000 H   0  0  0  0  0  0  0  0  0  0  0  0
    0.7081   -1.3627    0.0000 H   0  0  0  0  0  0  0  0  0  0  0  0
   -0.5932   -3.2510    0.0000 H   0  0  0  0  0  0  0  0  0  0  0  0
   -1.3907   -2.7894    0.0000 H   0  0  0  0  0  0  0  0  0  0  0  0
   -3.7582   -2.7550    0.0000 H   0  0  0  0  0  0  0  0  0  0  0  0
   -2.2172   -4.7084    0.0000 H   0  0  0  0  0  0  0  0  0  0  0  0
   -3.7320   -3.7147    0.0000 H   0  0  0  0  0  0  0  0  0  0  0  0
   -1.4023   -3.0905    0.0000 H   0  0  0  0  0  0  0  0  0  0  0  0
   -5.5032   -0.3618    0.0000 H   0  0  0  0  0  0  0  0  0  0  0  0
   -6.0023   -1.1463    0.0000 H   0  0  0  0  0  0  0  0  0  0  0  0
   -3.6064   -2.9518    0.0000 H   0  0  0  0  0  0  0  0  0  0  0  0
   -4.3564   -4.2508    0.0000 H   0  0  0  0  0  0  0  0  0  0  0  0
   -6.8904   -6.0279    0.0000 H   0  0  0  0  0  0  0  0  0  0  0  0
   -5.0053   -5.3971    0.0000 H   0  0  0  0  0  0  0  0  0  0  0  0
   -7.7462   -4.2337    0.0000 H   0  0  0  0  0  0  0  0  0  0  0  0
   -6.5160   -1.1365    0.0000 H   0  0  0  0  0  0  0  0  0  0  0  0
   -9.2848   -3.4354    0.0000 H   0  0  0  0  0  0  0  0  0  0  0  0
   -9.2948   -6.3057    0.0000 H   0  0  0  0  0  0  0  0  0  0  0  0
   -7.5838   -5.7990    0.0000 H   0  0  0  0  0  0  0  0  0  0  0  0
  -11.2231   -5.7848    0.0000 H   0  0  0  0  0  0  0  0  0  0  0  0
  -11.7362   -2.0771    0.0000 H   0  0  0  0  0  0  0  0  0  0  0  0
  -12.0710   -3.9762    0.0000 H   0  0  0  0  0  0  0  0  0  0  0  0
  -10.3208   -0.6676    0.0000 H   0  0  0  0  0  0  0  0  0  0  0  0
   -7.8528   -3.0733    0.0000 H   0  0  0  0  0  0  0  0  0  0  0  0
   -8.0812   -4.3683    0.0000 H   0  0  0  0  0  0  0  0  0  0  0  0
   -5.4402    1.3240    0.0000 H   0  0  0  0  0  0  0  0  0  0  0  0
   -3.5677    3.1965    0.0000 H   0  0  0  0  0  0  0  0  0  0  0  0
   -1.8819    3.2595    0.0000 H   0  0  0  0  0  0  0  0  0  0  0  0
   -0.1946    2.5607    0.0000 H   0  0  0  0  0  0  0  0  0  0  0  0
    0.4801    1.9400    0.0000 H   0  0  0  0  0  0  0  0  0  0  0  0
    1.8302    1.1491    0.0000 H   0  0  0  0  0  0  0  0  0  0  0  0
    1.9631   -1.0230    0.0000 H   0  0  0  0  0  0  0  0  0  0  0  0
    0.6184   -1.8198    0.0000 H   0  0  0  0  0  0  0  0  0  0  0  0
  1  2  1  0
  2  3  1  0
  3  4  1  0
  4  5  1  0
  4  6  1  0
  6  7  1  0
  7  8  1  0
  8  9  1  0
  8 10  1  0
 10 11  1  0
 11 12  1  0
 12 13  1  0
 13 14  1  0
 14 15  1  0
 15 16  1  0
 15 17  1  0
  6 18  1  0
 18 19  2  0
 19 20  1  0
 20 21  1  0
 21 22  1  0
 22 23  1  0
 23  3  1  0
 17 10  1  0
 23 21  1  0
 17 11  1  0
 16 13  1  0
  1 24  1  0
  1 25  1  0
  1 26  1  0
  2 27  1  0
  2 28  1  0
  3 29  1  0
  4 30  1  0
  5 31  1  0
  5 32  1  0
  5 33  1  0
  6 34  1  0
  7 35  1  0
  7 36  1  0
  8 37  1  0
  9 38  1  0
  9 39  1  0
  9 40  1  0
 10 41  1  0
 11 42  1  0
 12 43  1  0
 12 44  1  0
 13 45  1  0
 14 46  1  0
 14 47  1  0
 15 48  1  0
 16 49  1  0
 16 50  1  0
 18 51  1  0
 19 52  1  0
 20 53  1  0
 20 54  1  0
 21 55  1  0
 22 56  1  0
 22 57  1  0
 23 58  1  0
M  END
$$$$
