
     RDKit          2D

 45 48  0  0  0  0  0  0  0  0999 V2000
    1.6453    3.2623    0.0000 C   0  0  0  0  0  0  0  0  0  0  0  0
    2.7944    2.2981    0.0000 C   0  0  0  0  0  0  0  0  0  0  0  0
    3.9435    1.3340    0.0000 C   0  0  0  0  0  0  0  0  0  0  0  0
    5.0925    0.3698    0.0000 N   0  0  0  0  0  0  0  0  0  0  0  0
    1.8302    1.1491    0.0000 C   0  0  0  0  0  0  0  0  0  0  0  0
    0.8660    0.0000    0.0000 C   0  0  0  0  0  0  0  0  0  0  0  0
   -0.4330    0.7500    0.0000 C   0  0  0  0  0  0  0  0  0  0  0  0
   -1.9102    1.0105    0.0000 C   0  0  0  0  0  0  0  0  0  0  0  0
   -0.4330   -0.7500    0.0000 C   0  0  0  0  0  0  0  0  0  0  0  0
   -1.8819   -1.1382    0.0000 C   0  0  0  0  0  0  0  0  0  0  0  0
   -1.4937   -2.5871    0.0000 C   0  0  0  0  0  0  0  0  0  0  0  0
   -2.9426   -2.9753    0.0000 N   0  0  0  0  0  0  0  0  0  0  0  0
   -1.8819   -4.0360    0.0000 C   0  0  0  0  0  0  0  0  0  0  0  0
   -2.9426   -5.0967    0.0000 N   0  0  0  0  0  0  0  0  0  0  0  0
   -0.8212   -5.0967    0.0000 C   0  0  0  0  0  0  0  0  0  0  0  0
    0.6276   -4.7084    0.0000 C   0  0  0  0  0  0  0  0  0  0  0  0
    1.0159   -3.2595    0.0000 C   0  0  0  0  0  0  0  0  0  0  0  0
   -0.0448   -2.1989    0.0000 C   0  0  0  0  0  0  0  0  0  0  0  0
    0.4963    4.2265    0.0000 H   0  0  0  0  0  0  0  0  0  0  0  0
    2.6095    4.4114    0.0000 H   0  0  0  0  0  0  0  0  0  0  0  0
    0.8491    2.6839    0.0000 H   0  0  0  0  0  0  0  0  0  0  0  0
    3.7586    3.4472    0.0000 H   0  0  0  0  0  0  0  0  0  0  0  0
    4.9076    2.4830    0.0000 H   0  0  0  0  0  0  0  0  0  0  0  0
    3.4611    0.5911    0.0000 H   0  0  0  0  0  0  0  0  0  0  0  0
    6.5021    0.8828    0.0000 H   0  0  0  0  0  0  0  0  0  0  0  0
    4.8320   -1.1074    0.0000 H   0  0  0  0  0  0  0  0  0  0  0  0
    1.0763    1.7817    0.0000 H   0  0  0  0  0  0  0  0  0  0  0  0
    2.4343    0.5013    0.0000 H   0  0  0  0  0  0  0  0  0  0  0  0
    2.0796   -0.8816    0.0000 H   0  0  0  0  0  0  0  0  0  0  0  0
   -0.2763    2.2418    0.0000 H   0  0  0  0  0  0  0  0  0  0  0  0
   -3.3874    1.2709    0.0000 H   0  0  0  0  0  0  0  0  0  0  0  0
   -1.6498    2.4877    0.0000 H   0  0  0  0  0  0  0  0  0  0  0  0
   -2.3208    0.3272    0.0000 H   0  0  0  0  0  0  0  0  0  0  0  0
   -3.3308   -1.5265    0.0000 H   0  0  0  0  0  0  0  0  0  0  0  0
   -2.3505   -0.4933    0.0000 H   0  0  0  0  0  0  0  0  0  0  0  0
   -4.3915   -2.5871    0.0000 H   0  0  0  0  0  0  0  0  0  0  0  0
   -4.3915   -4.7084    0.0000 H   0  0  0  0  0  0  0  0  0  0  0  0
   -2.7338   -6.5821    0.0000 H   0  0  0  0  0  0  0  0  0  0  0  0
   -0.1873   -6.4561    0.0000 H   0  0  0  0  0  0  0  0  0  0  0  0
   -1.9359   -6.1004    0.0000 H   0  0  0  0  0  0  0  0  0  0  0  0
    2.1219   -4.8392    0.0000 H   0  0  0  0  0  0  0  0  0  0  0  0
    0.7584   -6.2027    0.0000 H   0  0  0  0  0  0  0  0  0  0  0  0
    2.1480   -2.2755    0.0000 H   0  0  0  0  0  0  0  0  0  0  0  0
    2.3753   -3.8935    0.0000 H   0  0  0  0  0  0  0  0  0  0  0  0
    1.2543   -1.4489    0.0000 H   0  0  0  0  0  0  0  0  0  0  0  0
  1  2  1  0
  2  3  1  0
  3  4  1  0
  2  5  1  0
  5  6  1  0
  6  7  1  0
  7  8  1  0
  7  9  1  0
  9 10  1  0
 10 11  1  0
 11 12  1  0
 12 13  1  0
 13 14  1  0
 13 15  1  0
 15 16  1  0
 16 17  1  0
 17 18  1  0
  9  6  1  0
 13 11  1  0
 18  9  1  0
 18 11  1  0
  1 19  1  0
  1 20  1  0
  1 21  1  0
  2 22  1  0
  3 23  1  0
  3 24  1  0
  4 25  1  0
  4 26  1  0
  5 27  1  0
  5 28  1  0
  6 29  1  0
  7 30  1  0
  8 31  1  0
  8 32  1  0
  8 33  1  0
 10 34  1  0
 10 35  1  0
 12 36  1  0
 14 37  1  0
 14 38  1  0
 15 39  1  0
 15 40  1  0
 16 41  1  0
 16 42  1  0
 17 43  1  0
 17 44  1  0
 18 45  1  0
M  END
$$$$
