
     RDKit          2D

 74 80  0  0  0  0  0  0  0  0999 V2000
   -3.8453   -3.1849    0.0000 C   0  0  0  0  0  0  0  0  0  0  0  0
   -2.6962   -4.1491    0.0000 C   0  0  0  0  0  0  0  0  0  0  0  0
   -1.5472   -5.1132    0.0000 C   0  0  0  0  0  0  0  0  0  0  0  0
   -0.3981   -6.0774    0.0000 C   0  0  0  0  0  0  0  0  0  0  0  0
    0.7510   -7.0416    0.0000 C   0  0  0  0  0  0  0  0  0  0  0  0
    1.9000   -8.0058    0.0000 C   0  0  0  0  0  0  0  0  0  0  0  0
    3.0491   -8.9700    0.0000 O   0  0  0  0  0  0  0  0  0  0  0  0
    0.9359   -9.1549    0.0000 O   0  0  0  0  0  0  0  0  0  0  0  0
    1.7151   -5.8925    0.0000 C   0  0  0  0  0  0  0  0  0  0  0  0
    3.0142   -5.1425    0.0000 C   0  0  0  0  0  0  0  0  0  0  0  0
    3.0142   -6.6425    0.0000 C   0  0  0  0  0  0  0  0  0  0  0  0
   -1.7321   -3.0000    0.0000 C   0  0  0  0  0  0  0  0  0  0  0  0
   -3.0311   -2.2500    0.0000 C   0  0  0  0  0  0  0  0  0  0  0  0
   -3.0311   -0.7500    0.0000 C   0  0  0  0  0  0  0  0  0  0  0  0
   -3.5441    0.6595    0.0000 C   0  0  0  0  0  0  0  0  0  0  0  0
   -5.0213    0.9200    0.0000 C   0  0  0  0  0  0  0  0  0  0  0  0
   -5.5344    2.3296    0.0000 C   0  0  0  0  0  0  0  0  0  0  0  0
   -6.4985    3.4786    0.0000 C   0  0  0  0  0  0  0  0  0  0  0  0
   -7.0116    2.0691    0.0000 C   0  0  0  0  0  0  0  0  0  0  0  0
   -8.4888    2.3296    0.0000 C   0  0  0  0  0  0  0  0  0  0  0  0
   -9.9660    2.5900    0.0000 C   0  0  0  0  0  0  0  0  0  0  0  0
  -11.4432    2.8505    0.0000 C   0  0  0  0  0  0  0  0  0  0  0  0
  -11.7037    1.3733    0.0000 C   0  0  0  0  0  0  0  0  0  0  0  0
  -13.1809    1.6338    0.0000 C   0  0  0  0  0  0  0  0  0  0  0  0
  -14.3300    2.5979    0.0000 C   0  0  0  0  0  0  0  0  0  0  0  0
  -12.9204    3.1110    0.0000 C   0  0  0  0  0  0  0  0  0  0  0  0
   -1.7321    0.0000    0.0000 C   0  0  0  0  0  0  0  0  0  0  0  0
   -0.4330    0.7500    0.0000 C   0  0  0  0  0  0  0  0  0  0  0  0
    0.8660    0.0000    0.0000 B   0  0  0  0  0  0  0  0  0  0  0  0
   -0.4330   -0.7500    0.0000 C   0  0  0  0  0  0  0  0  0  0  0  0
   -0.4330   -2.2500    0.0000 C   0  0  0  0  0  0  0  0  0  0  0  0
   -5.1033   -2.3680    0.0000 H   0  0  0  0  0  0  0  0  0  0  0  0
   -3.4959   -2.4684    0.0000 H   0  0  0  0  0  0  0  0  0  0  0  0
   -4.8095   -4.3340    0.0000 H   0  0  0  0  0  0  0  0  0  0  0  0
   -3.6604   -5.2981    0.0000 H   0  0  0  0  0  0  0  0  0  0  0  0
   -2.5113   -6.2623    0.0000 H   0  0  0  0  0  0  0  0  0  0  0  0
   -0.3336   -4.2316    0.0000 H   0  0  0  0  0  0  0  0  0  0  0  0
   -1.3623   -7.2265    0.0000 H   0  0  0  0  0  0  0  0  0  0  0  0
    0.4188   -4.8194    0.0000 H   0  0  0  0  0  0  0  0  0  0  0  0
   -0.2132   -8.1907    0.0000 H   0  0  0  0  0  0  0  0  0  0  0  0
    3.1136   -7.1242    0.0000 H   0  0  0  0  0  0  0  0  0  0  0  0
    2.7886  -10.4472    0.0000 H   0  0  0  0  0  0  0  0  0  0  0  0
    1.4489  -10.5644    0.0000 H   0  0  0  0  0  0  0  0  0  0  0  0
    0.8982   -4.6345    0.0000 H   0  0  0  0  0  0  0  0  0  0  0  0
    2.5012   -3.7330    0.0000 H   0  0  0  0  0  0  0  0  0  0  0  0
    4.4914   -4.8821    0.0000 H   0  0  0  0  0  0  0  0  0  0  0  0
    4.4914   -6.9030    0.0000 H   0  0  0  0  0  0  0  0  0  0  0  0
    2.8575   -8.1343    0.0000 H   0  0  0  0  0  0  0  0  0  0  0  0
   -0.6350   -4.0230    0.0000 H   0  0  0  0  0  0  0  0  0  0  0  0
   -4.4655   -1.8114    0.0000 H   0  0  0  0  0  0  0  0  0  0  0  0
   -3.8699   -3.4935    0.0000 H   0  0  0  0  0  0  0  0  0  0  0  0
   -4.5083   -1.0105    0.0000 H   0  0  0  0  0  0  0  0  0  0  0  0
   -2.5799    1.8086    0.0000 H   0  0  0  0  0  0  0  0  0  0  0  0
   -5.9855   -0.2291    0.0000 H   0  0  0  0  0  0  0  0  0  0  0  0
   -4.2353    3.0796    0.0000 H   0  0  0  0  0  0  0  0  0  0  0  0
   -5.5344    4.6277    0.0000 H   0  0  0  0  0  0  0  0  0  0  0  0
   -7.6965    4.3814    0.0000 H   0  0  0  0  0  0  0  0  0  0  0  0
   -7.0116    0.5691    0.0000 H   0  0  0  0  0  0  0  0  0  0  0  0
   -8.7493    0.8523    0.0000 H   0  0  0  0  0  0  0  0  0  0  0  0
   -8.4103    3.8275    0.0000 H   0  0  0  0  0  0  0  0  0  0  0  0
   -9.7055    4.0672    0.0000 H   0  0  0  0  0  0  0  0  0  0  0  0
  -10.0445    1.0921    0.0000 H   0  0  0  0  0  0  0  0  0  0  0  0
  -11.1827    4.3277    0.0000 H   0  0  0  0  0  0  0  0  0  0  0  0
  -11.9642   -0.1039    0.0000 H   0  0  0  0  0  0  0  0  0  0  0  0
  -10.2692    0.9347    0.0000 H   0  0  0  0  0  0  0  0  0  0  0  0
  -13.8148    0.2743    0.0000 H   0  0  0  0  0  0  0  0  0  0  0  0
  -15.4790    1.6338    0.0000 H   0  0  0  0  0  0  0  0  0  0  0  0
  -15.0800    3.8970    0.0000 H   0  0  0  0  0  0  0  0  0  0  0  0
  -13.0512    4.6053    0.0000 H   0  0  0  0  0  0  0  0  0  0  0  0
   -0.6900   -1.0790    0.0000 H   0  0  0  0  0  0  0  0  0  0  0  0
   -0.4330    2.2500    0.0000 H   0  0  0  0  0  0  0  0  0  0  0  0
    2.3660    0.0000    0.0000 H   0  0  0  0  0  0  0  0  0  0  0  0
    0.2480   -3.5865    0.0000 H   0  0  0  0  0  0  0  0  0  0  0  0
    1.0442   -1.9895    0.0000 H   0  0  0  0  0  0  0  0  0  0  0  0
  1  2  1  0
  2  3  1  0
  3  4  1  0
  4  5  1  0
  5  6  1  0
  6  7  1  0
  6  8  1  0
  5  9  1  0
  9 10  1  0
 10 11  1  0
  2 12  1  0
 12 13  1  0
 13 14  1  0
 14 15  1  0
 15 16  2  3
 16 17  1  0
 17 18  1  0
 18 19  1  0
 19 20  1  0
 20 21  1  0
 21 22  1  0
 22 23  1  0
 23 24  1  0
 24 25  1  0
 25 26  1  0
 14 27  1  0
 27 28  1  0
 28 29  1  0
 30 29  1  6
 30 31  1  0
 11  9  1  0
 31 12  1  0
 19 17  1  0
 26 22  1  0
 30 27  1  0
 26 24  1  0
 30 28  1  0
  1 32  1  0
  1 33  1  0
  1 34  1  0
  2 35  1  1
  3 36  1  0
  3 37  1  0
  4 38  1  0
  4 39  1  0
  5 40  1  6
  6 41  1  0
  7 42  1  0
  8 43  1  0
  9 44  1  0
 10 45  1  0
 10 46  1  0
 11 47  1  0
 11 48  1  0
 12 49  1  1
 13 50  1  0
 13 51  1  0
 14 52  1  1
 15 53  1  0
 16 54  1  0
 17 55  1  1
 18 56  1  0
 18 57  1  0
 19 58  1  6
 20 59  1  0
 20 60  1  0
 21 61  1  0
 21 62  1  0
 22 63  1  6
 23 64  1  0
 23 65  1  0
 24 66  1  6
 25 67  1  0
 25 68  1  0
 26 69  1  6
 27 70  1  1
 28 71  1  1
 29 72  1  0
 31 73  1  0
 31 74  1  0
M  END
$$$$
