
     RDKit          2D

 58 58  0  0  0  0  0  0  0  0999 V2000
   10.5697    7.5225    0.0000 C   0  0  0  0  0  0  0  0  0  0  0  0
    9.6055    6.3735    0.0000 C   0  0  0  0  0  0  0  0  0  0  0  0
   10.7546    5.4093    0.0000 C   0  0  0  0  0  0  0  0  0  0  0  0
    8.6414    5.2244    0.0000 C   0  0  0  0  0  0  0  0  0  0  0  0
    7.1641    5.4849    0.0000 C   0  0  0  0  0  0  0  0  0  0  0  0
    6.2000    4.3358    0.0000 C   0  0  0  0  0  0  0  0  0  0  0  0
    5.2358    3.1867    0.0000 C   0  0  0  0  0  0  0  0  0  0  0  0
    4.2716    2.0377    0.0000 C   0  0  0  0  0  0  0  0  0  0  0  0
    2.7944    2.2981    0.0000 C   0  0  0  0  0  0  0  0  0  0  0  0
    1.8302    1.1491    0.0000 C   0  0  0  0  0  0  0  0  0  0  0  0
    0.8660    0.0000    0.0000 C   0  0  0  0  0  0  0  0  0  0  0  0
    1.8302   -1.1491    0.0000 C   0  0  0  0  0  0  0  0  0  0  0  0
   -0.4330    0.7500    0.0000 C   0  0  0  0  0  0  0  0  0  0  0  0
   -0.4330   -0.7500    0.0000 C   0  0  0  0  0  0  0  0  0  0  0  0
    0.0800   -2.1595    0.0000 C   0  0  0  0  0  0  0  0  0  0  0  0
    4.7846    0.6281    0.0000 C   0  0  0  0  0  0  0  0  0  0  0  0
    5.2977   -0.7814    0.0000 C   0  0  0  0  0  0  0  0  0  0  0  0
    5.8107   -2.1910    0.0000 C   0  0  0  0  0  0  0  0  0  0  0  0
    6.3237   -3.6005    0.0000 C   0  0  0  0  0  0  0  0  0  0  0  0
    6.8368   -5.0100    0.0000 C   0  0  0  0  0  0  0  0  0  0  0  0
    7.7333   -3.0875    0.0000 N   0  0  0  0  0  0  0  0  0  0  0  0
   11.5339    8.6716    0.0000 H   0  0  0  0  0  0  0  0  0  0  0  0
    9.4207    8.4867    0.0000 H   0  0  0  0  0  0  0  0  0  0  0  0
   11.3126    7.0401    0.0000 H   0  0  0  0  0  0  0  0  0  0  0  0
    8.4565    7.3376    0.0000 H   0  0  0  0  0  0  0  0  0  0  0  0
   11.9037    4.4451    0.0000 H   0  0  0  0  0  0  0  0  0  0  0  0
   11.4024    6.0133    0.0000 H   0  0  0  0  0  0  0  0  0  0  0  0
    9.9377    4.1512    0.0000 H   0  0  0  0  0  0  0  0  0  0  0  0
    8.9787    3.7628    0.0000 H   0  0  0  0  0  0  0  0  0  0  0  0
    6.6511    6.8944    0.0000 H   0  0  0  0  0  0  0  0  0  0  0  0
    7.3490    3.3716    0.0000 H   0  0  0  0  0  0  0  0  0  0  0  0
    5.0509    5.3000    0.0000 H   0  0  0  0  0  0  0  0  0  0  0  0
    6.3848    2.2225    0.0000 H   0  0  0  0  0  0  0  0  0  0  0  0
    4.0867    4.1509    0.0000 H   0  0  0  0  0  0  0  0  0  0  0  0
    2.2814    3.7077    0.0000 H   0  0  0  0  0  0  0  0  0  0  0  0
    0.9095    2.1364    0.0000 H   0  0  0  0  0  0  0  0  0  0  0  0
    2.8492    0.4874    0.0000 H   0  0  0  0  0  0  0  0  0  0  0  0
    2.7944   -2.2981    0.0000 H   0  0  0  0  0  0  0  0  0  0  0  0
    1.3617   -1.7940    0.0000 H   0  0  0  0  0  0  0  0  0  0  0  0
    2.8492   -0.4874    0.0000 H   0  0  0  0  0  0  0  0  0  0  0  0
   -1.9102    1.0105    0.0000 H   0  0  0  0  0  0  0  0  0  0  0  0
   -0.1294    2.0654    0.0000 H   0  0  0  0  0  0  0  0  0  0  0  0
   -1.9102   -1.0105    0.0000 H   0  0  0  0  0  0  0  0  0  0  0  0
    0.5930   -3.5691    0.0000 H   0  0  0  0  0  0  0  0  0  0  0  0
   -1.3295   -2.6726    0.0000 H   0  0  0  0  0  0  0  0  0  0  0  0
    0.8728   -2.0763    0.0000 H   0  0  0  0  0  0  0  0  0  0  0  0
    6.2462    0.9655    0.0000 H   0  0  0  0  0  0  0  0  0  0  0  0
    6.1211    1.3091    0.0000 H   0  0  0  0  0  0  0  0  0  0  0  0
    6.7072   -0.2684    0.0000 H   0  0  0  0  0  0  0  0  0  0  0  0
    3.8881   -1.2944    0.0000 H   0  0  0  0  0  0  0  0  0  0  0  0
    4.4012   -2.7040    0.0000 H   0  0  0  0  0  0  0  0  0  0  0  0
    7.1472   -1.5099    0.0000 H   0  0  0  0  0  0  0  0  0  0  0  0
    4.9142   -4.1135    0.0000 H   0  0  0  0  0  0  0  0  0  0  0  0
    7.3498   -6.4196    0.0000 H   0  0  0  0  0  0  0  0  0  0  0  0
    5.4272   -5.5231    0.0000 H   0  0  0  0  0  0  0  0  0  0  0  0
    8.2983   -4.6726    0.0000 H   0  0  0  0  0  0  0  0  0  0  0  0
    8.9913   -3.9044    0.0000 H   0  0  0  0  0  0  0  0  0  0  0  0
    8.1719   -1.6530    0.0000 H   0  0  0  0  0  0  0  0  0  0  0  0
  1  2  1  0
  2  3  1  0
  2  4  1  0
  4  5  2  3
  5  6  1  0
  6  7  1  0
  7  8  1  0
  8  9  2  3
  9 10  1  0
 11 10  1  1
 11 12  1  0
 11 13  1  0
 13 14  1  0
 14 15  1  0
  8 16  1  0
 16 17  1  0
 17 18  1  0
 18 19  1  0
 19 20  1  0
 19 21  1  0
 14 11  1  0
  1 22  1  0
  1 23  1  0
  1 24  1  0
  2 25  1  0
  3 26  1  0
  3 27  1  0
  3 28  1  0
  4 29  1  0
  5 30  1  0
  6 31  1  0
  6 32  1  0
  7 33  1  0
  7 34  1  0
  9 35  1  0
 10 36  1  0
 10 37  1  0
 12 38  1  0
 12 39  1  0
 12 40  1  0
 13 41  1  0
 13 42  1  0
 14 43  1  1
 15 44  1  0
 15 45  1  0
 15 46  1  0
 16 47  1  0
 16 48  1  0
 17 49  1  0
 17 50  1  0
 18 51  1  0
 18 52  1  0
 19 53  1  1
 20 54  1  0
 20 55  1  0
 20 56  1  0
 21 57  1  0
 21 58  1  0
M  END
$$$$
