
     RDKit          2D

 71 78  0  0  0  0  0  0  0  0999 V2000
   -2.6624    3.6844    0.0000 C   0  0  0  0  0  0  0  0  0  0  0  0
   -1.5477    2.6807    0.0000 C   0  0  0  0  0  0  0  0  0  0  0  0
   -1.8596    1.2135    0.0000 C   0  0  0  0  0  0  0  0  0  0  0  0
   -0.4330    0.7500    0.0000 C   0  0  0  0  0  0  0  0  0  0  0  0
    0.8660    0.0000    0.0000 C   0  0  0  0  0  0  0  0  0  0  0  0
   -0.4330   -0.7500    0.0000 C   0  0  0  0  0  0  0  0  0  0  0  0
   -0.2199    0.6218    0.0000 C   0  0  0  0  0  0  0  0  0  0  0  0
    0.2254    1.9368    0.0000 C   0  0  0  0  0  0  0  0  0  0  0  0
    0.1077    3.4322    0.0000 C   0  0  0  0  0  0  0  0  0  0  0  0
   -1.3509    3.7824    0.0000 C   0  0  0  0  0  0  0  0  0  0  0  0
   -0.8502    5.1963    0.0000 C   0  0  0  0  0  0  0  0  0  0  0  0
   -2.4697    2.5838    0.0000 C   0  0  0  0  0  0  0  0  0  0  0  0
   -0.9882    2.8185    0.0000 C   0  0  0  0  0  0  0  0  0  0  0  0
   -3.3514    1.3703    0.0000 C   0  0  0  0  0  0  0  0  0  0  0  0
   -4.5649    2.2520    0.0000 C   0  0  0  0  0  0  0  0  0  0  0  0
   -5.7784    3.1337    0.0000 C   0  0  0  0  0  0  0  0  0  0  0  0
   -6.9920    4.0154    0.0000 C   0  0  0  0  0  0  0  0  0  0  0  0
   -8.2055    4.8970    0.0000 C   0  0  0  0  0  0  0  0  0  0  0  0
   -9.2092    6.0117    0.0000 C   0  0  0  0  0  0  0  0  0  0  0  0
  -10.5795    5.4016    0.0000 C   0  0  0  0  0  0  0  0  0  0  0  0
  -10.4227    3.9099    0.0000 C   0  0  0  0  0  0  0  0  0  0  0  0
   -8.9555    3.5980    0.0000 C   0  0  0  0  0  0  0  0  0  0  0  0
   -9.1123    2.1062    0.0000 C   0  0  0  0  0  0  0  0  0  0  0  0
   -7.7420    2.7163    0.0000 C   0  0  0  0  0  0  0  0  0  0  0  0
   -6.9032    1.4728    0.0000 C   0  0  0  0  0  0  0  0  0  0  0  0
   -6.0644    0.2292    0.0000 C   0  0  0  0  0  0  0  0  0  0  0  0
   -2.7413    0.0000    0.0000 C   0  0  0  0  0  0  0  0  0  0  0  0
   -3.3514   -1.3703    0.0000 C   0  0  0  0  0  0  0  0  0  0  0  0
   -1.8596   -1.2135    0.0000 C   0  0  0  0  0  0  0  0  0  0  0  0
   -2.7149    5.1835    0.0000 H   0  0  0  0  0  0  0  0  0  0  0  0
   -4.1349    3.3983    0.0000 H   0  0  0  0  0  0  0  0  0  0  0  0
   -0.0753    2.9669    0.0000 H   0  0  0  0  0  0  0  0  0  0  0  0
   -0.1726    2.2272    0.0000 H   0  0  0  0  0  0  0  0  0  0  0  0
    1.9631    1.0230    0.0000 H   0  0  0  0  0  0  0  0  0  0  0  0
    1.9631   -1.0230    0.0000 H   0  0  0  0  0  0  0  0  0  0  0  0
    1.7457    1.2279    0.0000 H   0  0  0  0  0  0  0  0  0  0  0  0
    1.2549   -0.8168    0.0000 H   0  0  0  0  0  0  0  0  0  0  0  0
    1.5903    2.5588    0.0000 H   0  0  0  0  0  0  0  0  0  0  0  0
    1.6008    3.5760    0.0000 H   0  0  0  0  0  0  0  0  0  0  0  0
    0.4833    4.8844    0.0000 H   0  0  0  0  0  0  0  0  0  0  0  0
   -2.2430    4.9882    0.0000 H   0  0  0  0  0  0  0  0  0  0  0  0
   -0.3495    6.6103    0.0000 H   0  0  0  0  0  0  0  0  0  0  0  0
   -2.1926    5.8657    0.0000 H   0  0  0  0  0  0  0  0  0  0  0  0
    0.6143    4.8717    0.0000 H   0  0  0  0  0  0  0  0  0  0  0  0
   -3.5396    3.6351    0.0000 H   0  0  0  0  0  0  0  0  0  0  0  0
   -1.2486    4.2957    0.0000 H   0  0  0  0  0  0  0  0  0  0  0  0
    0.0538    3.8975    0.0000 H   0  0  0  0  0  0  0  0  0  0  0  0
   -5.2921    0.9400    0.0000 H   0  0  0  0  0  0  0  0  0  0  0  0
   -4.0031    3.6428    0.0000 H   0  0  0  0  0  0  0  0  0  0  0  0
   -6.3403    1.7429    0.0000 H   0  0  0  0  0  0  0  0  0  0  0  0
   -4.8968    4.3472    0.0000 H   0  0  0  0  0  0  0  0  0  0  0  0
   -6.1103    5.2289    0.0000 H   0  0  0  0  0  0  0  0  0  0  0  0
   -7.5538    2.6245    0.0000 H   0  0  0  0  0  0  0  0  0  0  0  0
   -7.2018    6.0117    0.0000 H   0  0  0  0  0  0  0  0  0  0  0  0
   -7.9957    6.8934    0.0000 H   0  0  0  0  0  0  0  0  0  0  0  0
   -9.9592    7.3108    0.0000 H   0  0  0  0  0  0  0  0  0  0  0  0
  -11.0430    6.8282    0.0000 H   0  0  0  0  0  0  0  0  0  0  0  0
  -12.0467    5.0898    0.0000 H   0  0  0  0  0  0  0  0  0  0  0  0
  -11.9227    3.9099    0.0000 H   0  0  0  0  0  0  0  0  0  0  0  0
  -10.7602    2.4483    0.0000 H   0  0  0  0  0  0  0  0  0  0  0  0
  -10.5847    1.8200    0.0000 H   0  0  0  0  0  0  0  0  0  0  0  0
   -8.9295    0.6174    0.0000 H   0  0  0  0  0  0  0  0  0  0  0  0
   -6.4429    3.4662    0.0000 H   0  0  0  0  0  0  0  0  0  0  0  0
   -8.0352    0.4886    0.0000 H   0  0  0  0  0  0  0  0  0  0  0  0
   -5.6596    2.3115    0.0000 H   0  0  0  0  0  0  0  0  0  0  0  0
   -5.3834   -1.1073    0.0000 H   0  0  0  0  0  0  0  0  0  0  0  0
   -7.3079   -0.6096    0.0000 H   0  0  0  0  0  0  0  0  0  0  0  0
   -4.7278    0.9102    0.0000 H   0  0  0  0  0  0  0  0  0  0  0  0
   -4.8402   -1.1876    0.0000 H   0  0  0  0  0  0  0  0  0  0  0  0
   -3.4560   -2.8667    0.0000 H   0  0  0  0  0  0  0  0  0  0  0  0
   -1.5477   -2.6807    0.0000 H   0  0  0  0  0  0  0  0  0  0  0  0
  1  2  2  3
  2  3  1  0
  3  4  1  0
  4  5  1  0
  5  6  1  0
  6  7  1  0
  7  8  1  0
  8  9  1  0
  9 10  1  0
 10 11  1  0
 10 12  1  0
 12 13  1  0
 12 14  1  0
 14 15  1  0
 15 16  1  0
 16 17  1  0
 17 18  1  0
 18 19  1  0
 19 20  1  0
 20 21  1  0
 21 22  1  0
 22 23  1  0
 23 24  1  0
 24 25  1  0
 25 26  1  0
 14 27  1  0
 27 28  1  0
 28 29  1  0
 14  3  1  0
 22 18  1  0
 29 27  1  0
 27  3  1  0
  6  4  1  0
 13  8  1  0
 24 22  1  0
 29  6  1  0
  1 30  1  0
  1 31  1  0
  2 32  1  0
  4 33  1  0
  5 34  1  0
  5 35  1  0
  7 36  1  0
  7 37  1  0
  8 38  1  0
  9 39  1  0
  9 40  1  0
 10 41  1  0
 11 42  1  0
 11 43  1  0
 11 44  1  0
 12 45  1  0
 13 46  1  0
 13 47  1  0
 15 48  1  0
 15 49  1  0
 16 50  1  0
 16 51  1  0
 17 52  1  0
 17 53  1  0
 18 54  1  0
 19 55  1  0
 19 56  1  0
 20 57  1  0
 20 58  1  0
 21 59  1  0
 21 60  1  0
 23 61  1  0
 23 62  1  0
 24 63  1  0
 25 64  1  0
 25 65  1  0
 26 66  1  0
 26 67  1  0
 26 68  1  0
 28 69  1  0
 28 70  1  0
 29 71  1  0
M  END
$$$$
