
     RDKit          2D

 46 48  0  0  0  0  0  0  0  0999 V2000
   -5.0129    4.3635    0.0000 C   0  0  0  0  0  0  0  0  0  0  0  0
   -3.5357    4.6240    0.0000 C   0  0  0  0  0  0  0  0  0  0  0  0
   -2.2367    5.3740    0.0000 C   0  0  0  0  0  0  0  0  0  0  0  0
   -2.2367    6.8740    0.0000 C   0  0  0  0  0  0  0  0  0  0  0  0
   -0.9376    7.6240    0.0000 C   0  0  0  0  0  0  0  0  0  0  0  0
    0.3614    8.3740    0.0000 C   0  0  0  0  0  0  0  0  0  0  0  0
    1.6605    9.1240    0.0000 C   0  0  0  0  0  0  0  0  0  0  0  0
    2.9595    9.8740    0.0000 C   0  0  0  0  0  0  0  0  0  0  0  0
    2.4105    7.8250    0.0000 C   0  0  0  0  0  0  0  0  0  0  0  0
    3.1605    6.5259    0.0000 F   0  0  0  0  0  0  0  0  0  0  0  0
   -0.9376    4.6240    0.0000 N   0  0  0  0  0  0  0  0  0  0  0  0
   -0.9376    3.1240    0.0000 C   0  0  0  0  0  0  0  0  0  0  0  0
    0.4327    3.7341    0.0000 N   0  0  0  0  0  0  0  0  0  0  0  0
    0.1771    2.1203    0.0000 N   0  0  0  0  0  0  0  0  0  0  0  0
   -0.4330    0.7500    0.0000 C   0  0  0  0  0  0  0  0  0  0  0  0
    0.8660    0.0000    0.0000 C   0  0  0  0  0  0  0  0  0  0  0  0
   -0.4330   -0.7500    0.0000 C   0  0  0  0  0  0  0  0  0  0  0  0
   -1.9248    0.9068    0.0000 N   0  0  0  0  0  0  0  0  0  0  0  0
   -2.2367    2.3740    0.0000 N   0  0  0  0  0  0  0  0  0  0  0  0
   -3.5357    3.1240    0.0000 C   0  0  0  0  0  0  0  0  0  0  0  0
   -4.0487    1.7145    0.0000 Br  0  0  0  0  0  0  0  0  0  0  0  0
   -6.4901    4.1031    0.0000 H   0  0  0  0  0  0  0  0  0  0  0  0
   -5.2734    5.8408    0.0000 H   0  0  0  0  0  0  0  0  0  0  0  0
   -4.9344    2.8656    0.0000 H   0  0  0  0  0  0  0  0  0  0  0  0
   -4.0487    6.0336    0.0000 H   0  0  0  0  0  0  0  0  0  0  0  0
   -3.5357    7.6240    0.0000 H   0  0  0  0  0  0  0  0  0  0  0  0
   -1.6876    8.9231    0.0000 H   0  0  0  0  0  0  0  0  0  0  0  0
   -0.1876    6.3250    0.0000 H   0  0  0  0  0  0  0  0  0  0  0  0
   -0.3886    9.6731    0.0000 H   0  0  0  0  0  0  0  0  0  0  0  0
    0.7075    7.5587    0.0000 H   0  0  0  0  0  0  0  0  0  0  0  0
    0.9105   10.4231    0.0000 H   0  0  0  0  0  0  0  0  0  0  0  0
    4.2585   10.6240    0.0000 H   0  0  0  0  0  0  0  0  0  0  0  0
    2.2095   11.1731    0.0000 H   0  0  0  0  0  0  0  0  0  0  0  0
    3.4926    9.1666    0.0000 H   0  0  0  0  0  0  0  0  0  0  0  0
    3.2258    8.1710    0.0000 H   0  0  0  0  0  0  0  0  0  0  0  0
    1.7031    7.2919    0.0000 H   0  0  0  0  0  0  0  0  0  0  0  0
   -0.1517    5.2163    0.0000 H   0  0  0  0  0  0  0  0  0  0  0  0
    0.6541    4.6930    0.0000 H   0  0  0  0  0  0  0  0  0  0  0  0
    1.6134    3.0797    0.0000 H   0  0  0  0  0  0  0  0  0  0  0  0
    1.5220    2.2379    0.0000 H   0  0  0  0  0  0  0  0  0  0  0  0
    1.8302    1.1491    0.0000 H   0  0  0  0  0  0  0  0  0  0  0  0
    1.8302   -1.1491    0.0000 H   0  0  0  0  0  0  0  0  0  0  0  0
    0.0800   -2.1595    0.0000 H   0  0  0  0  0  0  0  0  0  0  0  0
   -1.9102   -1.0105    0.0000 H   0  0  0  0  0  0  0  0  0  0  0  0
   -2.9285   -0.2079    0.0000 H   0  0  0  0  0  0  0  0  0  0  0  0
   -5.0336    3.2025    0.0000 H   0  0  0  0  0  0  0  0  0  0  0  0
  1  2  1  0
  2  3  1  0
  3  4  2  3
  4  5  1  0
  5  6  1  0
  6  7  1  0
  7  8  1  0
  7  9  1  0
  9 10  1  0
  3 11  1  0
 11 12  1  0
 12 13  1  1
 12 14  1  0
 14 15  1  0
 15 16  1  0
 16 17  1  0
 15 18  1  0
 18 19  1  0
 19 20  1  0
 20 21  1  0
 20  2  1  0
 19 12  1  0
 17 15  1  0
  1 22  1  0
  1 23  1  0
  1 24  1  0
  2 25  1  6
  4 26  1  0
  5 27  1  0
  5 28  1  0
  6 29  1  0
  6 30  1  0
  7 31  1  6
  8 32  1  0
  8 33  1  0
  8 34  1  0
  9 35  1  0
  9 36  1  0
 11 37  1  0
 13 38  1  0
 13 39  1  0
 14 40  1  0
 16 41  1  0
 16 42  1  0
 17 43  1  0
 17 44  1  0
 18 45  1  0
 20 46  1  6
M  END
$$$$
