
     RDKit          2D

 80 84  0  0  0  0  0  0  0  0999 V2000
    0.3405  -11.4555    0.0000 C   0  0  0  0  0  0  0  0  0  0  0  0
   -0.3327  -10.1150    0.0000 C   0  0  0  0  0  0  0  0  0  0  0  0
   -1.0059   -8.7746    0.0000 N   0  0  0  0  0  0  0  0  0  0  0  0
   -0.1816   -7.5213    0.0000 N   0  0  0  0  0  0  0  0  0  0  0  0
   -0.8548   -6.1809    0.0000 C   0  0  0  0  0  0  0  0  0  0  0  0
   -1.5280   -4.8404    0.0000 C   0  0  0  0  0  0  0  0  0  0  0  0
   -0.1876   -4.1672    0.0000 I   0  0  0  0  0  0  0  0  0  0  0  0
   -2.2012   -3.5000    0.0000 C   0  0  0  0  0  0  0  0  0  0  0  0
   -2.8744   -2.1595    0.0000 C   0  0  0  0  0  0  0  0  0  0  0  0
   -1.3972   -1.8991    0.0000 C   0  0  0  0  0  0  0  0  0  0  0  0
   -0.4330   -0.7500    0.0000 C   0  0  0  0  0  0  0  0  0  0  0  0
   -0.4330    0.7500    0.0000 C   0  0  0  0  0  0  0  0  0  0  0  0
    0.8660    0.0000    0.0000 C   0  0  0  0  0  0  0  0  0  0  0  0
    1.8302   -1.1491    0.0000 O   0  0  0  0  0  0  0  0  0  0  0  0
    1.8302    1.1491    0.0000 C   0  0  0  0  0  0  0  0  0  0  0  0
    2.7944    2.2981    0.0000 O   0  0  0  0  0  0  0  0  0  0  0  0
    4.2716    2.0377    0.0000 C   0  0  0  0  0  0  0  0  0  0  0  0
    5.7488    1.7772    0.0000 C   0  0  0  0  0  0  0  0  0  0  0  0
    7.2260    1.5167    0.0000 C   0  0  0  0  0  0  0  0  0  0  0  0
    8.7032    1.2562    0.0000 C   0  0  0  0  0  0  0  0  0  0  0  0
   10.1804    0.9958    0.0000 O   0  0  0  0  0  0  0  0  0  0  0  0
   11.1446    2.1448    0.0000 C   0  0  0  0  0  0  0  0  0  0  0  0
   12.1088    3.2939    0.0000 C   0  0  0  0  0  0  0  0  0  0  0  0
   -1.3972    1.8991    0.0000 C   0  0  0  0  0  0  0  0  0  0  0  0
   -1.3972    3.3991    0.0000 C   0  0  0  0  0  0  0  0  0  0  0  0
   -0.0982    2.6491    0.0000 C   0  0  0  0  0  0  0  0  0  0  0  0
   -2.8744    2.1595    0.0000 C   0  0  0  0  0  0  0  0  0  0  0  0
   -4.1734    1.4095    0.0000 C   0  0  0  0  0  0  0  0  0  0  0  0
   -5.6709    1.4968    0.0000 C   0  0  0  0  0  0  0  0  0  0  0  0
   -4.6865    0.0000    0.0000 C   0  0  0  0  0  0  0  0  0  0  0  0
   -4.1734   -1.4095    0.0000 C   0  0  0  0  0  0  0  0  0  0  0  0
   -5.5830   -1.9226    0.0000 C   0  0  0  0  0  0  0  0  0  0  0  0
   -6.0960   -0.5130    0.0000 C   0  0  0  0  0  0  0  0  0  0  0  0
    1.0137  -12.7959    0.0000 H   0  0  0  0  0  0  0  0  0  0  0  0
    1.6810  -10.7823    0.0000 H   0  0  0  0  0  0  0  0  0  0  0  0
   -0.9999  -12.1287    0.0000 H   0  0  0  0  0  0  0  0  0  0  0  0
    1.0078   -9.4418    0.0000 H   0  0  0  0  0  0  0  0  0  0  0  0
   -1.6731  -10.7882    0.0000 H   0  0  0  0  0  0  0  0  0  0  0  0
   -2.5033   -8.6873    0.0000 H   0  0  0  0  0  0  0  0  0  0  0  0
    1.3159   -7.6086    0.0000 H   0  0  0  0  0  0  0  0  0  0  0  0
    0.4856   -5.5077    0.0000 H   0  0  0  0  0  0  0  0  0  0  0  0
   -2.1953   -6.8541    0.0000 H   0  0  0  0  0  0  0  0  0  0  0  0
   -2.8685   -5.5136    0.0000 H   0  0  0  0  0  0  0  0  0  0  0  0
   -1.4234   -3.3252    0.0000 H   0  0  0  0  0  0  0  0  0  0  0  0
   -3.5417   -4.1732    0.0000 H   0  0  0  0  0  0  0  0  0  0  0  0
   -3.9655   -3.1889    0.0000 H   0  0  0  0  0  0  0  0  0  0  0  0
   -0.0199   -2.4932    0.0000 H   0  0  0  0  0  0  0  0  0  0  0  0
   -1.1998   -2.6714    0.0000 H   0  0  0  0  0  0  0  0  0  0  0  0
    0.6640   -1.7730    0.0000 H   0  0  0  0  0  0  0  0  0  0  0  0
    0.5312    1.8991    0.0000 H   0  0  0  0  0  0  0  0  0  0  0  0
    3.3074   -0.8886    0.0000 H   0  0  0  0  0  0  0  0  0  0  0  0
    2.9793    0.1849    0.0000 H   0  0  0  0  0  0  0  0  0  0  0  0
    0.6811    2.1132    0.0000 H   0  0  0  0  0  0  0  0  0  0  0  0
    4.0111    0.5604    0.0000 H   0  0  0  0  0  0  0  0  0  0  0  0
    4.5321    3.5149    0.0000 H   0  0  0  0  0  0  0  0  0  0  0  0
    5.4883    0.3000    0.0000 H   0  0  0  0  0  0  0  0  0  0  0  0
    6.0093    3.2544    0.0000 H   0  0  0  0  0  0  0  0  0  0  0  0
    7.4865    2.9939    0.0000 H   0  0  0  0  0  0  0  0  0  0  0  0
    6.9656    0.0395    0.0000 H   0  0  0  0  0  0  0  0  0  0  0  0
    8.4428   -0.2210    0.0000 H   0  0  0  0  0  0  0  0  0  0  0  0
    8.9637    2.7335    0.0000 H   0  0  0  0  0  0  0  0  0  0  0  0
    9.9956    3.1090    0.0000 H   0  0  0  0  0  0  0  0  0  0  0  0
   12.2937    1.1807    0.0000 H   0  0  0  0  0  0  0  0  0  0  0  0
   13.0730    4.4430    0.0000 H   0  0  0  0  0  0  0  0  0  0  0  0
   10.9597    4.2581    0.0000 H   0  0  0  0  0  0  0  0  0  0  0  0
   13.2579    2.3297    0.0000 H   0  0  0  0  0  0  0  0  0  0  0  0
   -2.8316    3.8377    0.0000 H   0  0  0  0  0  0  0  0  0  0  0  0
   -0.8842    4.8086    0.0000 H   0  0  0  0  0  0  0  0  0  0  0  0
    0.8660    3.7981    0.0000 H   0  0  0  0  0  0  0  0  0  0  0  0
    0.8660    1.5000    0.0000 H   0  0  0  0  0  0  0  0  0  0  0  0
   -3.3130    3.5940    0.0000 H   0  0  0  0  0  0  0  0  0  0  0  0
   -4.5194    2.8691    0.0000 H   0  0  0  0  0  0  0  0  0  0  0  0
   -7.1684    1.5840    0.0000 H   0  0  0  0  0  0  0  0  0  0  0  0
   -5.5837    2.9942    0.0000 H   0  0  0  0  0  0  0  0  0  0  0  0
   -6.1179    0.0649    0.0000 H   0  0  0  0  0  0  0  0  0  0  0  0
   -4.4517   -1.4815    0.0000 H   0  0  0  0  0  0  0  0  0  0  0  0
   -2.9447   -0.5492    0.0000 H   0  0  0  0  0  0  0  0  0  0  0  0
   -6.9925   -2.4356    0.0000 H   0  0  0  0  0  0  0  0  0  0  0  0
   -5.0700   -3.3321    0.0000 H   0  0  0  0  0  0  0  0  0  0  0  0
   -7.4555    0.1209    0.0000 H   0  0  0  0  0  0  0  0  0  0  0  0
  1  2  1  0
  2  3  1  0
  3  4  1  0
  4  5  1  0
  5  6  1  0
  6  7  1  0
  6  8  1  0
  8  9  1  0
  9 10  1  0
 10 11  1  0
 11 12  1  0
 12 13  1  0
 13 14  1  0
 13 15  1  0
 15 16  1  0
 16 17  1  0
 17 18  1  0
 18 19  1  0
 19 20  1  0
 20 21  1  0
 21 22  1  0
 22 23  1  0
 12 24  1  0
 24 25  1  0
 25 26  1  0
 24 27  1  0
 27 28  1  0
 28 29  1  0
 28 30  1  0
 30 31  1  0
 31 32  1  0
 32 33  1  0
 31  9  1  0
 13 11  1  0
 26 24  1  0
 33 27  1  0
 33 30  1  0
  1 34  1  0
  1 35  1  0
  1 36  1  0
  2 37  1  0
  2 38  1  0
  3 39  1  0
  4 40  1  0
  5 41  1  0
  5 42  1  0
  6 43  1  0
  8 44  1  0
  8 45  1  0
  9 46  1  0
 10 47  1  0
 10 48  1  0
 11 49  1  0
 12 50  1  0
 14 51  1  0
 15 52  1  0
 15 53  1  0
 17 54  1  0
 17 55  1  0
 18 56  1  0
 18 57  1  0
 19 58  1  0
 19 59  1  0
 20 60  1  0
 20 61  1  0
 22 62  1  0
 22 63  1  0
 23 64  1  0
 23 65  1  0
 23 66  1  0
 25 67  1  0
 25 68  1  0
 26 69  1  0
 26 70  1  0
 27 71  1  0
 28 72  1  0
 29 73  1  0
 29 74  1  0
 29 75  1  0
 30 76  1  0
 31 77  1  0
 32 78  1  0
 32 79  1  0
 33 80  1  0
M  END
$$$$
