
     RDKit          2D

 99107  0  0  0  0  0  0  0  0999 V2000
    6.0553   13.9417    0.0000 C   0  0  0  0  0  0  0  0  0  0  0  0
    6.0553   12.4417    0.0000 C   0  0  0  0  0  0  0  0  0  0  0  0
    4.7563   11.6917    0.0000 C   0  0  0  0  0  0  0  0  0  0  0  0
    3.2791   11.4312    0.0000 S   0  0  0  0  0  0  0  0  0  0  0  0
    2.7661   10.0217    0.0000 C   0  0  0  0  0  0  0  0  0  0  0  0
    3.7302    8.8726    0.0000 C   0  0  0  0  0  0  0  0  0  0  0  0
    2.3708    8.2387    0.0000 C   0  0  0  0  0  0  0  0  0  0  0  0
    1.0113    7.6047    0.0000 O   0  0  0  0  0  0  0  0  0  0  0  0
   -0.2174    8.4651    0.0000 N   0  0  0  0  0  0  0  0  0  0  0  0
    3.9907    7.3954    0.0000 C   0  0  0  0  0  0  0  0  0  0  0  0
    4.2512    5.9182    0.0000 C   0  0  0  0  0  0  0  0  0  0  0  0
    4.5117    4.4410    0.0000 C   0  0  0  0  0  0  0  0  0  0  0  0
    4.7721    2.9637    0.0000 C   0  0  0  0  0  0  0  0  0  0  0  0
    5.0326    1.4865    0.0000 C   0  0  0  0  0  0  0  0  0  0  0  0
    3.0344    4.1805    0.0000 C   0  0  0  0  0  0  0  0  0  0  0  0
    1.5572    3.9200    0.0000 C   0  0  0  0  0  0  0  0  0  0  0  0
    0.0800    3.6595    0.0000 C   0  0  0  0  0  0  0  0  0  0  0  0
   -1.2190    2.9095    0.0000 C   0  0  0  0  0  0  0  0  0  0  0  0
    0.0800    2.1595    0.0000 C   0  0  0  0  0  0  0  0  0  0  0  0
   -0.4330    0.7500    0.0000 C   0  0  0  0  0  0  0  0  0  0  0  0
   -1.9102    1.0105    0.0000 C   0  0  0  0  0  0  0  0  0  0  0  0
   -2.5912    2.3470    0.0000 O   0  0  0  0  0  0  0  0  0  0  0  0
   -2.8744   -0.1386    0.0000 O   0  0  0  0  0  0  0  0  0  0  0  0
    0.8660    0.0000    0.0000 C   0  0  0  0  0  0  0  0  0  0  0  0
   -0.4330   -0.7500    0.0000 C   0  0  0  0  0  0  0  0  0  0  0  0
   -1.9330   -0.7500    0.0000 C   0  0  0  0  0  0  0  0  0  0  0  0
   -2.6830   -2.0490    0.0000 C   0  0  0  0  0  0  0  0  0  0  0  0
   -3.4330   -3.3481    0.0000 C   0  0  0  0  0  0  0  0  0  0  0  0
   -1.9330   -3.3481    0.0000 C   0  0  0  0  0  0  0  0  0  0  0  0
   -0.4330   -3.3481    0.0000 C   0  0  0  0  0  0  0  0  0  0  0  0
    0.3170   -2.0490    0.0000 N   0  0  0  0  0  0  0  0  0  0  0  0
   -0.4330   -4.8481    0.0000 C   0  0  0  0  0  0  0  0  0  0  0  0
    0.0800   -6.2576    0.0000 N   0  0  0  0  0  0  0  0  0  0  0  0
   -1.3972   -5.9971    0.0000 C   0  0  0  0  0  0  0  0  0  0  0  0
   -2.8744   -6.2576    0.0000 C   0  0  0  0  0  0  0  0  0  0  0  0
   -4.1734   -5.5076    0.0000 C   0  0  0  0  0  0  0  0  0  0  0  0
   -4.6865   -4.0981    0.0000 C   0  0  0  0  0  0  0  0  0  0  0  0
   -6.1865   -4.0981    0.0000 C   0  0  0  0  0  0  0  0  0  0  0  0
   -3.3874   -4.8481    0.0000 C   0  0  0  0  0  0  0  0  0  0  0  0
   -4.1734   -2.6885    0.0000 C   0  0  0  0  0  0  0  0  0  0  0  0
    5.4679    7.6559    0.0000 C   0  0  0  0  0  0  0  0  0  0  0  0
    5.2074    9.1331    0.0000 C   0  0  0  0  0  0  0  0  0  0  0  0
    5.7205   10.5426    0.0000 C   0  0  0  0  0  0  0  0  0  0  0  0
    7.0195    9.7926    0.0000 O   0  0  0  0  0  0  0  0  0  0  0  0
    7.3544   14.6917    0.0000 H   0  0  0  0  0  0  0  0  0  0  0  0
    4.7563   14.6917    0.0000 H   0  0  0  0  0  0  0  0  0  0  0  0
    7.4361   11.8556    0.0000 H   0  0  0  0  0  0  0  0  0  0  0  0
    4.2433   13.1012    0.0000 H   0  0  0  0  0  0  0  0  0  0  0  0
    1.4670   10.7717    0.0000 H   0  0  0  0  0  0  0  0  0  0  0  0
    2.1830    9.4780    0.0000 H   0  0  0  0  0  0  0  0  0  0  0  0
    1.9483    8.9147    0.0000 H   0  0  0  0  0  0  0  0  0  0  0  0
    2.8343    6.8121    0.0000 H   0  0  0  0  0  0  0  0  0  0  0  0
   -1.5769    7.8312    0.0000 H   0  0  0  0  0  0  0  0  0  0  0  0
   -0.0867    9.9594    0.0000 H   0  0  0  0  0  0  0  0  0  0  0  0
    2.5563    6.9568    0.0000 H   0  0  0  0  0  0  0  0  0  0  0  0
    2.7532    5.8397    0.0000 H   0  0  0  0  0  0  0  0  0  0  0  0
    5.7491    5.9966    0.0000 H   0  0  0  0  0  0  0  0  0  0  0  0
    5.9889    4.7014    0.0000 H   0  0  0  0  0  0  0  0  0  0  0  0
    6.2493    3.2242    0.0000 H   0  0  0  0  0  0  0  0  0  0  0  0
    3.3377    2.5251    0.0000 H   0  0  0  0  0  0  0  0  0  0  0  0
    5.2931    0.0093    0.0000 H   0  0  0  0  0  0  0  0  0  0  0  0
    6.5098    1.7470    0.0000 H   0  0  0  0  0  0  0  0  0  0  0  0
    3.5554    1.2261    0.0000 H   0  0  0  0  0  0  0  0  0  0  0  0
    3.1129    2.6825    0.0000 H   0  0  0  0  0  0  0  0  0  0  0  0
    2.5958    5.6149    0.0000 H   0  0  0  0  0  0  0  0  0  0  0  0
    1.9958    2.4856    0.0000 H   0  0  0  0  0  0  0  0  0  0  0  0
    1.2968    5.3972    0.0000 H   0  0  0  0  0  0  0  0  0  0  0  0
   -0.4330    5.0691    0.0000 H   0  0  0  0  0  0  0  0  0  0  0  0
   -2.1832    4.0586    0.0000 H   0  0  0  0  0  0  0  0  0  0  0  0
   -2.3161    1.8866    0.0000 H   0  0  0  0  0  0  0  0  0  0  0  0
    1.5572    1.8991    0.0000 H   0  0  0  0  0  0  0  0  0  0  0  0
   -4.3516    0.1219    0.0000 H   0  0  0  0  0  0  0  0  0  0  0  0
    1.9631    1.0230    0.0000 H   0  0  0  0  0  0  0  0  0  0  0  0
    1.9631   -1.0230    0.0000 H   0  0  0  0  0  0  0  0  0  0  0  0
   -3.4248   -0.5933    0.0000 H   0  0  0  0  0  0  0  0  0  0  0  0
   -2.0377    0.7463    0.0000 H   0  0  0  0  0  0  0  0  0  0  0  0
   -4.9328   -3.3744    0.0000 H   0  0  0  0  0  0  0  0  0  0  0  0
   -3.3283   -4.8444    0.0000 H   0  0  0  0  0  0  0  0  0  0  0  0
   -2.2960   -1.8927    0.0000 H   0  0  0  0  0  0  0  0  0  0  0  0
    0.7328   -4.2920    0.0000 H   0  0  0  0  0  0  0  0  0  0  0  0
    1.8058   -2.2319    0.0000 H   0  0  0  0  0  0  0  0  0  0  0  0
    1.0649   -4.7696    0.0000 H   0  0  0  0  0  0  0  0  0  0  0  0
    1.2291   -7.2218    0.0000 H   0  0  0  0  0  0  0  0  0  0  0  0
   -1.3972   -7.4971    0.0000 H   0  0  0  0  0  0  0  0  0  0  0  0
   -3.1349   -7.7348    0.0000 H   0  0  0  0  0  0  0  0  0  0  0  0
   -4.5194   -6.9672    0.0000 H   0  0  0  0  0  0  0  0  0  0  0  0
   -5.6491   -5.7767    0.0000 H   0  0  0  0  0  0  0  0  0  0  0  0
   -7.6865   -4.0981    0.0000 H   0  0  0  0  0  0  0  0  0  0  0  0
   -6.3693   -2.6093    0.0000 H   0  0  0  0  0  0  0  0  0  0  0  0
   -6.3693   -5.5869    0.0000 H   0  0  0  0  0  0  0  0  0  0  0  0
   -3.4050   -3.3482    0.0000 H   0  0  0  0  0  0  0  0  0  0  0  0
   -1.8900   -4.7609    0.0000 H   0  0  0  0  0  0  0  0  0  0  0  0
   -5.6053   -2.2416    0.0000 H   0  0  0  0  0  0  0  0  0  0  0  0
   -4.5194   -1.2290    0.0000 H   0  0  0  0  0  0  0  0  0  0  0  0
    6.9451    7.9163    0.0000 H   0  0  0  0  0  0  0  0  0  0  0  0
    5.9065    6.2214    0.0000 H   0  0  0  0  0  0  0  0  0  0  0  0
    6.6257    8.6446    0.0000 H   0  0  0  0  0  0  0  0  0  0  0  0
    6.8175   11.5656    0.0000 H   0  0  0  0  0  0  0  0  0  0  0  0
    8.3186   10.5426    0.0000 H   0  0  0  0  0  0  0  0  0  0  0  0
  1  2  2  3
  2  3  1  0
  3  4  1  0
  4  5  1  0
  5  6  1  0
  6  7  1  0
  7  8  1  0
  8  9  1  0
  6 10  1  0
 10 11  1  0
 11 12  1  0
 12 13  1  0
 13 14  1  0
 12 15  1  0
 15 16  1  0
 16 17  1  0
 17 18  1  0
 18 19  1  0
 19 20  1  0
 20 21  1  0
 21 22  2  0
 21 23  1  0
 20 24  1  0
 24 25  1  0
 25 26  1  0
 26 27  1  0
 27 28  1  0
 28 29  1  0
 29 30  1  0
 30 31  1  0
 30 32  1  0
 32 33  1  0
 33 34  1  0
 34 35  1  0
 35 36  1  0
 36 37  1  0
 37 38  1  0
 37 39  1  0
 37 40  1  0
 10 41  1  0
 41 42  1  0
 42 43  1  0
 43 44  1  0
 43  3  1  0
 42  6  1  0
 19 17  1  0
 25 20  1  0
 29 27  1  0
 34 32  1  0
 39 35  1  0
 31 25  1  0
 40 27  1  0
  1 45  1  0
  1 46  1  0
  2 47  1  0
  3 48  1  0
  5 49  1  0
  5 50  1  0
  7 51  1  0
  7 52  1  0
  9 53  1  0
  9 54  1  0
 10 55  1  0
 11 56  1  0
 11 57  1  0
 12 58  1  0
 13 59  1  0
 13 60  1  0
 14 61  1  0
 14 62  1  0
 14 63  1  0
 15 64  1  0
 15 65  1  0
 16 66  1  0
 16 67  1  0
 17 68  1  0
 18 69  1  0
 18 70  1  0
 19 71  1  0
 23 72  1  0
 24 73  1  0
 24 74  1  0
 26 75  1  0
 26 76  1  0
 28 77  1  0
 28 78  1  0
 29 79  1  0
 30 80  1  0
 31 81  1  0
 32 82  1  0
 33 83  1  0
 34 84  1  0
 35 85  1  0
 36 86  1  0
 36 87  1  0
 38 88  1  0
 38 89  1  0
 38 90  1  0
 39 91  1  0
 39 92  1  0
 40 93  1  0
 40 94  1  0
 41 95  1  0
 41 96  1  0
 42 97  1  0
 43 98  1  0
 44 99  1  0
M  END
$$$$
