
     RDKit          2D

 40 43  0  0  0  0  0  0  0  0999 V2000
    7.5755   -3.6718    0.0000 C   0  0  0  0  0  0  0  0  0  0  0  0
    7.8360   -2.1946    0.0000 C   0  0  0  0  0  0  0  0  0  0  0  0
    6.6869   -1.2304    0.0000 C   0  0  0  0  0  0  0  0  0  0  0  0
    5.5379   -0.2663    0.0000 C   0  0  0  0  0  0  0  0  0  0  0  0
    4.3888    0.6979    0.0000 C   0  0  0  0  0  0  0  0  0  0  0  0
    2.9793    0.1849    0.0000 C   0  0  0  0  0  0  0  0  0  0  0  0
    1.8302    1.1491    0.0000 C   0  0  0  0  0  0  0  0  0  0  0  0
    0.6811    2.1132    0.0000 O   0  0  0  0  0  0  0  0  0  0  0  0
    0.8660    0.0000    0.0000 S   0  0  0  0  0  4  0  0  0  0  0  0
   -0.4330    0.7500    0.0000 C   0  0  0  0  0  0  0  0  0  0  0  0
   -1.9330    0.7500    0.0000 C   0  0  0  0  0  0  0  0  0  0  0  0
   -2.9937    1.8107    0.0000 C   0  0  0  0  0  0  0  0  0  0  0  0
   -4.0543    2.8713    0.0000 F   0  0  0  0  0  0  0  0  0  0  0  0
   -1.9330   -2.2500    0.0000 C   0  0  0  0  0  0  0  0  0  0  0  0
   -0.4330   -2.2500    0.0000 C   0  0  0  0  0  0  0  0  0  0  0  0
    1.0670   -2.2500    0.0000 C   0  0  0  0  0  0  0  0  0  0  0  0
    2.5670   -2.2500    0.0000 O   0  0  0  0  0  0  0  0  0  0  0  0
   -0.4330   -0.7500    0.0000 C   0  0  0  0  0  0  0  0  0  0  0  0
   -1.9330   -0.7500    0.0000 C   0  0  0  0  0  0  0  0  0  0  0  0
    8.7246   -4.6360    0.0000 H   0  0  0  0  0  0  0  0  0  0  0  0
    6.1660   -4.1849    0.0000 H   0  0  0  0  0  0  0  0  0  0  0  0
    9.2456   -1.6816    0.0000 H   0  0  0  0  0  0  0  0  0  0  0  0
    5.7228   -2.3795    0.0000 H   0  0  0  0  0  0  0  0  0  0  0  0
    7.6511   -0.0814    0.0000 H   0  0  0  0  0  0  0  0  0  0  0  0
    6.5021    0.8828    0.0000 H   0  0  0  0  0  0  0  0  0  0  0  0
    4.5737   -1.4153    0.0000 H   0  0  0  0  0  0  0  0  0  0  0  0
    4.6493    2.1751    0.0000 H   0  0  0  0  0  0  0  0  0  0  0  0
    2.9008   -1.3131    0.0000 H   0  0  0  0  0  0  0  0  0  0  0  0
    2.7944    2.2981    0.0000 H   0  0  0  0  0  0  0  0  0  0  0  0
    0.9416    3.5905    0.0000 H   0  0  0  0  0  0  0  0  0  0  0  0
    1.3784   -0.6107    0.0000 H   0  0  0  0  0  0  0  0  0  0  0  0
   -0.4069    2.2498    0.0000 H   0  0  0  0  0  0  0  0  0  0  0  0
   -4.0543    0.7500    0.0000 H   0  0  0  0  0  0  0  0  0  0  0  0
   -1.9330    2.8713    0.0000 H   0  0  0  0  0  0  0  0  0  0  0  0
   -2.9937   -3.3107    0.0000 H   0  0  0  0  0  0  0  0  0  0  0  0
   -0.4330   -3.7500    0.0000 H   0  0  0  0  0  0  0  0  0  0  0  0
    1.0670   -3.7500    0.0000 H   0  0  0  0  0  0  0  0  0  0  0  0
    1.3845   -1.4231    0.0000 H   0  0  0  0  0  0  0  0  0  0  0  0
    3.3170   -3.5490    0.0000 H   0  0  0  0  0  0  0  0  0  0  0  0
   -3.4330   -0.7500    0.0000 H   0  0  0  0  0  0  0  0  0  0  0  0
  1  2  2  3
  2  3  1  0
  3  4  1  0
  4  5  1  0
  5  6  2  3
  6  7  1  0
  7  8  1  0
  7  9  1  0
  9 10  1  0
 10 11  1  0
 11 12  1  6
 12 13  1  0
 11 14  1  0
 14 15  1  0
 15 16  1  0
 16 17  1  0
 18 15  1  1
 18 19  1  0
 18  9  1  0
 18 10  1  0
 19 11  1  0
 19 14  1  0
  1 20  1  0
  1 21  1  0
  2 22  1  0
  3 23  1  0
  3 24  1  0
  4 25  1  0
  4 26  1  0
  5 27  1  0
  6 28  1  0
  7 29  1  6
  8 30  1  0
  9 31  1  1
 10 32  1  1
 12 33  1  0
 12 34  1  0
 14 35  1  1
 15 36  1  6
 16 37  1  0
 16 38  1  0
 17 39  1  0
 19 40  1  1
M  END
$$$$
