
     RDKit          2D

108116  0  0  0  0  0  0  0  0999 V2000
    2.4944   -1.8698    0.0000 C   0  0  0  0  0  0  0  0  0  0  0  0
    1.3454   -2.8340    0.0000 C   0  0  0  0  0  0  0  0  0  0  0  0
    0.1963   -3.7981    0.0000 C   0  0  0  0  0  0  0  0  0  0  0  0
   -0.9528   -4.7623    0.0000 C   0  0  0  0  0  0  0  0  0  0  0  0
   -2.1018   -5.7265    0.0000 C   0  0  0  0  0  0  0  0  0  0  0  0
   -3.2509   -6.6907    0.0000 C   0  0  0  0  0  0  0  0  0  0  0  0
   -1.1376   -6.8756    0.0000 C   0  0  0  0  0  0  0  0  0  0  0  0
   -0.7679   -2.6491    0.0000 C   0  0  0  0  0  0  0  0  0  0  0  0
   -1.7321   -1.5000    0.0000 C   0  0  0  0  0  0  0  0  0  0  0  0
   -3.0311   -0.7500    0.0000 C   0  0  0  0  0  0  0  0  0  0  0  0
   -3.0311    0.7500    0.0000 C   0  0  0  0  0  0  0  0  0  0  0  0
   -4.5083    0.4895    0.0000 C   0  0  0  0  0  0  0  0  0  0  0  0
   -5.9855    0.2291    0.0000 C   0  0  0  0  0  0  0  0  0  0  0  0
   -1.7321    1.5000    0.0000 C   0  0  0  0  0  0  0  0  0  0  0  0
    0.4778    1.4489    0.0000 C   0  0  0  0  0  0  0  0  0  0  0  0
    0.8660    0.0000    0.0000 C   0  0  0  0  0  0  0  0  0  0  0  0
    2.3660    0.0000    0.0000 C   0  0  0  0  0  0  0  0  0  0  0  0
    3.8660    0.0000    0.0000 C   0  0  0  0  0  0  0  0  0  0  0  0
    5.3660    0.0000    0.0000 C   0  0  0  0  0  0  0  0  0  0  0  0
    6.8660    0.0000    0.0000 C   0  0  0  0  0  0  0  0  0  0  0  0
    8.3332    0.3119    0.0000 C   0  0  0  0  0  0  0  0  0  0  0  0
    9.0832   -0.9872    0.0000 C   0  0  0  0  0  0  0  0  0  0  0  0
    8.0796   -2.1019    0.0000 C   0  0  0  0  0  0  0  0  0  0  0  0
    6.7092   -1.4918    0.0000 C   0  0  0  0  0  0  0  0  0  0  0  0
    6.2457   -2.9184    0.0000 N   0  0  0  0  0  0  0  0  0  0  0  0
    2.3660    1.5000    0.0000 C   0  0  0  0  0  0  0  0  0  0  0  0
    2.3660    3.0000    0.0000 C   0  0  0  0  0  0  0  0  0  0  0  0
    0.9171    3.3882    0.0000 C   0  0  0  0  0  0  0  0  0  0  0  0
    1.3054    4.8371    0.0000 O   0  0  0  0  0  0  0  0  0  0  0  0
    2.7543    4.4489    0.0000 C   0  0  0  0  0  0  0  0  0  0  0  0
    3.8149    3.3882    0.0000 C   0  0  0  0  0  0  0  0  0  0  0  0
    4.8756    2.3276    0.0000 C   0  0  0  0  0  0  0  0  0  0  0  0
    5.2638    3.7765    0.0000 C   0  0  0  0  0  0  0  0  0  0  0  0
    5.1331    5.2707    0.0000 Cl  0  0  0  0  0  0  0  0  0  0  0  0
    6.7581    3.6457    0.0000 C   0  0  0  0  0  0  0  0  0  0  0  0
    8.2524    3.5150    0.0000 S   0  0  0  0  0  0  0  0  0  0  0  0
    9.1128    4.7437    0.0000 N   0  0  0  0  0  0  0  0  0  0  0  0
    2.3660   -1.5000    0.0000 N   0  0  0  0  0  0  0  0  0  0  0  0
    3.6651   -2.2500    0.0000 C   0  0  0  0  0  0  0  0  0  0  0  0
    4.9641   -3.0000    0.0000 C   0  0  0  0  0  0  0  0  0  0  0  0
    4.4511   -4.4095    0.0000 C   0  0  0  0  0  0  0  0  0  0  0  0
    5.4153   -5.5586    0.0000 C   0  0  0  0  0  0  0  0  0  0  0  0
    5.9283   -4.1491    0.0000 N   0  0  0  0  0  0  0  0  0  0  0  0
   -0.4330   -0.7500    0.0000 C   0  0  0  0  0  0  0  0  0  0  0  0
   -0.4330    0.7500    0.0000 C   0  0  0  0  0  0  0  0  0  0  0  0
    3.6435   -0.9056    0.0000 H   0  0  0  0  0  0  0  0  0  0  0  0
    2.9827   -3.2881    0.0000 H   0  0  0  0  0  0  0  0  0  0  0  0
    1.5303   -0.7207    0.0000 H   0  0  0  0  0  0  0  0  0  0  0  0
    0.2483   -1.8110    0.0000 H   0  0  0  0  0  0  0  0  0  0  0  0
    2.1623   -4.0920    0.0000 H   0  0  0  0  0  0  0  0  0  0  0  0
    1.1605   -4.9472    0.0000 H   0  0  0  0  0  0  0  0  0  0  0  0
    0.0114   -5.9114    0.0000 H   0  0  0  0  0  0  0  0  0  0  0  0
    0.2608   -5.6439    0.0000 H   0  0  0  0  0  0  0  0  0  0  0  0
   -3.0660   -4.5774    0.0000 H   0  0  0  0  0  0  0  0  0  0  0  0
   -4.4000   -7.6549    0.0000 H   0  0  0  0  0  0  0  0  0  0  0  0
   -4.2151   -5.5416    0.0000 H   0  0  0  0  0  0  0  0  0  0  0  0
   -2.4340   -7.9487    0.0000 H   0  0  0  0  0  0  0  0  0  0  0  0
   -0.1735   -8.0246    0.0000 H   0  0  0  0  0  0  0  0  0  0  0  0
   -2.1606   -7.9726    0.0000 H   0  0  0  0  0  0  0  0  0  0  0  0
    0.2106   -6.2181    0.0000 H   0  0  0  0  0  0  0  0  0  0  0  0
   -1.9169   -3.6132    0.0000 H   0  0  0  0  0  0  0  0  0  0  0  0
    0.2551   -1.5520    0.0000 H   0  0  0  0  0  0  0  0  0  0  0  0
   -2.6962   -2.6491    0.0000 H   0  0  0  0  0  0  0  0  0  0  0  0
   -3.5441   -2.1595    0.0000 H   0  0  0  0  0  0  0  0  0  0  0  0
   -4.5290   -0.6715    0.0000 H   0  0  0  0  0  0  0  0  0  0  0  0
   -3.5441    2.1595    0.0000 H   0  0  0  0  0  0  0  0  0  0  0  0
   -4.7688    1.9667    0.0000 H   0  0  0  0  0  0  0  0  0  0  0  0
   -4.4298   -1.0084    0.0000 H   0  0  0  0  0  0  0  0  0  0  0  0
   -7.4627   -0.0314    0.0000 H   0  0  0  0  0  0  0  0  0  0  0  0
   -6.2460    1.7063    0.0000 H   0  0  0  0  0  0  0  0  0  0  0  0
   -5.7250   -1.2482    0.0000 H   0  0  0  0  0  0  0  0  0  0  0  0
   -1.7321    3.0000    0.0000 H   0  0  0  0  0  0  0  0  0  0  0  0
    1.7897    2.1762    0.0000 H   0  0  0  0  0  0  0  0  0  0  0  0
    0.2691    2.9343    0.0000 H   0  0  0  0  0  0  0  0  0  0  0  0
    4.5704   -1.3243    0.0000 H   0  0  0  0  0  0  0  0  0  0  0  0
    3.8660    1.5000    0.0000 H   0  0  0  0  0  0  0  0  0  0  0  0
    5.3660   -1.5000    0.0000 H   0  0  0  0  0  0  0  0  0  0  0  0
    5.5489    1.4888    0.0000 H   0  0  0  0  0  0  0  0  0  0  0  0
    6.7092    1.4918    0.0000 H   0  0  0  0  0  0  0  0  0  0  0  0
    7.8697    1.7385    0.0000 H   0  0  0  0  0  0  0  0  0  0  0  0
    9.7036    0.9220    0.0000 H   0  0  0  0  0  0  0  0  0  0  0  0
   10.2968   -0.1055    0.0000 H   0  0  0  0  0  0  0  0  0  0  0  0
   10.0869   -2.1019    0.0000 H   0  0  0  0  0  0  0  0  0  0  0  0
    9.2931   -2.9836    0.0000 H   0  0  0  0  0  0  0  0  0  0  0  0
    7.4935   -3.4827    0.0000 H   0  0  0  0  0  0  0  0  0  0  0  0
    5.2420   -1.1799    0.0000 H   0  0  0  0  0  0  0  0  0  0  0  0
    7.1060   -4.1471    0.0000 H   0  0  0  0  0  0  0  0  0  0  0  0
    4.8976   -3.5760    0.0000 H   0  0  0  0  0  0  0  0  0  0  0  0
    3.8660    1.5000    0.0000 H   0  0  0  0  0  0  0  0  0  0  0  0
    0.9106    1.8630    0.0000 H   0  0  0  0  0  0  0  0  0  0  0  0
   -0.5318    3.7765    0.0000 H   0  0  0  0  0  0  0  0  0  0  0  0
    0.1899    2.0763    0.0000 H   0  0  0  0  0  0  0  0  0  0  0  0
    3.5043    5.7479    0.0000 H   0  0  0  0  0  0  0  0  0  0  0  0
    4.0152    1.0988    0.0000 H   0  0  0  0  0  0  0  0  0  0  0  0
    6.3022    1.8641    0.0000 H   0  0  0  0  0  0  0  0  0  0  0  0
    6.8888    5.1400    0.0000 H   0  0  0  0  0  0  0  0  0  0  0  0
    6.6274    2.1514    0.0000 H   0  0  0  0  0  0  0  0  0  0  0  0
   10.6070    4.6130    0.0000 H   0  0  0  0  0  0  0  0  0  0  0  0
    8.4788    6.1032    0.0000 H   0  0  0  0  0  0  0  0  0  0  0  0
    0.8845   -1.7345    0.0000 H   0  0  0  0  0  0  0  0  0  0  0  0
    4.5678   -1.0521    0.0000 H   0  0  0  0  0  0  0  0  0  0  0  0
    3.2517   -3.6919    0.0000 H   0  0  0  0  0  0  0  0  0  0  0  0
    6.0612   -1.9770    0.0000 H   0  0  0  0  0  0  0  0  0  0  0  0
    2.9739   -4.6700    0.0000 H   0  0  0  0  0  0  0  0  0  0  0  0
    4.4511   -6.7077    0.0000 H   0  0  0  0  0  0  0  0  0  0  0  0
    6.7143   -6.3086    0.0000 H   0  0  0  0  0  0  0  0  0  0  0  0
    0.1530   -2.1308    0.0000 H   0  0  0  0  0  0  0  0  0  0  0  0
    0.4697    1.9479    0.0000 H   0  0  0  0  0  0  0  0  0  0  0  0
  1  2  1  0
  2  3  1  0
  3  4  1  0
  4  5  1  0
  5  6  1  0
  5  7  1  0
  3  8  1  0
  8  9  1  0
  9 10  1  0
 10 11  1  0
 11 12  1  0
 12 13  1  0
 11 14  1  0
 14 15  1  0
 15 16  1  0
 16 17  1  0
 17 18  1  0
 18 19  1  0
 19 20  1  0
 20 21  1  0
 21 22  1  0
 22 23  1  0
 23 24  1  0
 24 25  1  0
 17 26  1  0
 26 27  1  0
 27 28  1  0
 28 29  1  0
 29 30  1  0
 30 31  1  0
 31 32  1  0
 32 33  1  0
 33 34  1  0
 33 35  1  0
 35 36  1  0
 36 37  1  0
 17 38  1  0
 38 39  1  0
 39 40  1  0
 40 41  1  0
 41 42  1  0
 42 43  1  0
 16 44  1  0
 44 45  1  0
 44  9  1  0
 45 14  1  0
 45 16  1  0
 24 20  1  0
 30 27  1  0
 33 31  1  0
 43 40  1  0
 31 27  1  0
 43 41  1  0
  1 46  1  0
  1 47  1  0
  1 48  1  0
  2 49  1  0
  2 50  1  0
  3 51  1  0
  4 52  1  0
  4 53  1  0
  5 54  1  0
  6 55  1  0
  6 56  1  0
  6 57  1  0
  7 58  1  0
  7 59  1  0
  7 60  1  0
  8 61  1  0
  8 62  1  0
  9 63  1  0
 10 64  1  0
 10 65  1  0
 11 66  1  0
 12 67  1  0
 12 68  1  0
 13 69  1  0
 13 70  1  0
 13 71  1  0
 14 72  1  0
 15 73  1  0
 15 74  1  0
 18 75  1  0
 18 76  1  0
 19 77  1  0
 19 78  1  0
 20 79  1  0
 21 80  1  0
 21 81  1  0
 22 82  1  0
 22 83  1  0
 23 84  1  0
 23 85  1  0
 24 86  1  0
 25 87  1  0
 25 88  1  0
 26 89  1  0
 26 90  1  0
 28 91  1  0
 28 92  1  0
 30 93  1  0
 32 94  1  0
 32 95  1  0
 35 96  1  0
 35 97  1  0
 37 98  1  0
 37 99  1  0
 38100  1  0
 39101  1  0
 39102  1  0
 40103  1  0
 41104  1  0
 42105  1  0
 42106  1  0
 44107  1  0
 45108  1  0
M  END
$$$$
