
     RDKit          2D

 79 83  0  0  0  0  0  0  0  0999 V2000
    4.3978    0.0000    0.0000 C   0  0  0  0  0  0  0  0  0  0  0  0
    2.8978    0.0000    0.0000 C   0  0  0  0  0  0  0  0  0  0  0  0
    2.5095   -1.4489    0.0000 C   0  0  0  0  0  0  0  0  0  0  0  0
    1.4489   -2.5095    0.0000 C   0  0  0  0  0  0  0  0  0  0  0  0
   -0.0000   -2.8978    0.0000 C   0  0  0  0  0  0  0  0  0  0  0  0
   -1.4489   -2.5095    0.0000 C   0  0  0  0  0  0  0  0  0  0  0  0
   -1.3182   -4.0038    0.0000 O   0  0  0  0  0  0  0  0  0  0  0  0
   -2.5469   -4.8642    0.0000 Si  0  0  0  0  0  4  0  0  0  0  0  0
   -3.6790   -3.8802    0.0000 Br  0  0  0  0  0  0  0  0  0  0  0  0
   -3.7756   -5.7246    0.0000 C   0  0  0  0  0  0  0  0  0  0  0  0
   -5.0043   -6.5849    0.0000 C   0  0  0  0  0  0  0  0  0  0  0  0
   -2.5095   -1.4489    0.0000 C   0  0  0  0  0  0  0  0  0  0  0  0
   -2.8978    0.0000    0.0000 C   0  0  0  0  0  0  0  0  0  0  0  0
   -2.5095    1.4489    0.0000 C   0  0  0  0  0  0  0  0  0  0  0  0
   -1.4489    2.5095    0.0000 N   0  0  0  0  0  0  0  0  0  0  0  0
    0.0000    2.8978    0.0000 C   0  0  0  0  0  0  0  0  0  0  0  0
   -0.8604    4.1265    0.0000 C   0  0  0  0  0  0  0  0  0  0  0  0
   -1.7207    5.3552    0.0000 C   0  0  0  0  0  0  0  0  0  0  0  0
   -2.5811    6.5840    0.0000 C   0  0  0  0  0  0  0  0  0  0  0  0
   -3.6870    5.5706    0.0000 C   0  0  0  0  0  0  0  0  0  0  0  0
   -4.0117    7.0350    0.0000 C   0  0  0  0  0  0  0  0  0  0  0  0
   -4.7043    8.3655    0.0000 C   0  0  0  0  0  0  0  0  0  0  0  0
   -4.2532    9.7961    0.0000 Se  0  0  0  0  0  2  0  0  0  0  0  0
   -2.9227   10.4887    0.0000 O   0  0  0  0  0  0  0  0  0  0  0  0
   -1.4921   10.0377    0.0000 C   0  0  0  0  0  0  0  0  0  0  0  0
    0.7004    8.7202    0.0000 C   0  0  0  0  0  0  0  0  0  0  0  0
    1.1764    7.2978    0.0000 C   0  0  0  0  0  0  0  0  0  0  0  0
   -0.0294    6.4055    0.0000 C   0  0  0  0  0  0  0  0  0  0  0  0
   -1.2506    7.2766    0.0000 C   0  0  0  0  0  0  0  0  0  0  0  0
   -0.7995    8.7072    0.0000 C   0  0  0  0  0  0  0  0  0  0  0  0
   -0.0270    9.9929    0.0000 C   0  0  0  0  0  0  0  0  0  0  0  0
    1.4489    2.5095    0.0000 C   0  0  0  0  0  0  0  0  0  0  0  0
    2.5095    1.4489    0.0000 C   0  0  0  0  0  0  0  0  0  0  0  0
    5.1478   -1.2990    0.0000 H   0  0  0  0  0  0  0  0  0  0  0  0
    5.1478    1.2990    0.0000 H   0  0  0  0  0  0  0  0  0  0  0  0
    4.0038   -1.3182    0.0000 H   0  0  0  0  0  0  0  0  0  0  0  0
    3.1534   -2.4792    0.0000 H   0  0  0  0  0  0  0  0  0  0  0  0
    2.4792   -3.1534    0.0000 H   0  0  0  0  0  0  0  0  0  0  0  0
    1.4913   -3.7238    0.0000 H   0  0  0  0  0  0  0  0  0  0  0  0
    0.5704   -3.9706    0.0000 H   0  0  0  0  0  0  0  0  0  0  0  0
   -0.3918   -3.9187    0.0000 H   0  0  0  0  0  0  0  0  0  0  0  0
   -2.5501   -3.0230    0.0000 H   0  0  0  0  0  0  0  0  0  0  0  0
   -1.6865   -6.0929    0.0000 H   0  0  0  0  0  0  0  0  0  0  0  0
   -4.6360   -4.4958    0.0000 H   0  0  0  0  0  0  0  0  0  0  0  0
   -2.9152   -6.9533    0.0000 H   0  0  0  0  0  0  0  0  0  0  0  0
   -6.2331   -7.4453    0.0000 H   0  0  0  0  0  0  0  0  0  0  0  0
   -5.8647   -5.3562    0.0000 H   0  0  0  0  0  0  0  0  0  0  0  0
   -4.1440   -7.8137    0.0000 H   0  0  0  0  0  0  0  0  0  0  0  0
   -3.2742   -2.3931    0.0000 H   0  0  0  0  0  0  0  0  0  0  0  0
   -3.7238   -1.4913    0.0000 H   0  0  0  0  0  0  0  0  0  0  0  0
   -3.9706   -0.5704    0.0000 H   0  0  0  0  0  0  0  0  0  0  0  0
   -3.9706    0.5704    0.0000 H   0  0  0  0  0  0  0  0  0  0  0  0
   -3.7238    1.4913    0.0000 H   0  0  0  0  0  0  0  0  0  0  0  0
   -3.1435    2.8084    0.0000 H   0  0  0  0  0  0  0  0  0  0  0  0
   -2.4909    3.5885    0.0000 H   0  0  0  0  0  0  0  0  0  0  0  0
    0.5704    3.9706    0.0000 H   0  0  0  0  0  0  0  0  0  0  0  0
    0.2124    4.6969    0.0000 H   0  0  0  0  0  0  0  0  0  0  0  0
   -2.1848    3.4223    0.0000 H   0  0  0  0  0  0  0  0  0  0  0  0
   -0.3203    5.8927    0.0000 H   0  0  0  0  0  0  0  0  0  0  0  0
   -2.8354    4.3515    0.0000 H   0  0  0  0  0  0  0  0  0  0  0  0
   -3.2111    4.1481    0.0000 H   0  0  0  0  0  0  0  0  0  0  0  0
   -5.0728    4.9966    0.0000 H   0  0  0  0  0  0  0  0  0  0  0  0
   -5.4212    6.5220    0.0000 H   0  0  0  0  0  0  0  0  0  0  0  0
   -5.9694    9.1715    0.0000 H   0  0  0  0  0  0  0  0  0  0  0  0
   -5.8102    7.3522    0.0000 H   0  0  0  0  0  0  0  0  0  0  0  0
   -0.6752   11.2957    0.0000 H   0  0  0  0  0  0  0  0  0  0  0  0
    1.7138    9.8261    0.0000 H   0  0  0  0  0  0  0  0  0  0  0  0
    2.5413    7.9198    0.0000 H   0  0  0  0  0  0  0  0  0  0  0  0
    1.9377    6.0053    0.0000 H   0  0  0  0  0  0  0  0  0  0  0  0
    1.1112    5.4314    0.0000 H   0  0  0  0  0  0  0  0  0  0  0  0
   -0.5546    5.0005    0.0000 H   0  0  0  0  0  0  0  0  0  0  0  0
   -1.1720    5.7786    0.0000 H   0  0  0  0  0  0  0  0  0  0  0  0
    0.7456   11.2787    0.0000 H   0  0  0  0  0  0  0  0  0  0  0  0
   -0.9504   11.1750    0.0000 H   0  0  0  0  0  0  0  0  0  0  0  0
    1.4503    9.7326    0.0000 H   0  0  0  0  0  0  0  0  0  0  0  0
    1.5013    4.0086    0.0000 H   0  0  0  0  0  0  0  0  0  0  0  0
    2.7209    3.3045    0.0000 H   0  0  0  0  0  0  0  0  0  0  0  0
    3.3045    2.7209    0.0000 H   0  0  0  0  0  0  0  0  0  0  0  0
    4.0038    1.3182    0.0000 H   0  0  0  0  0  0  0  0  0  0  0  0
  1  2  2  3
  2  3  1  0
  3  4  1  0
  4  5  1  0
  5  6  1  0
  6  7  1  0
  7  8  1  0
  8  9  1  0
  8 10  1  0
 10 11  1  0
  6 12  1  0
 12 13  1  0
 13 14  1  0
 14 15  1  0
 15 16  1  0
 16 17  1  0
 17 18  1  0
 18 19  1  0
 19 20  1  0
 20 21  1  0
 21 22  1  0
 22 23  1  0
 23 24  1  0
 24 25  1  0
 25 26  1  0
 26 27  1  0
 27 28  1  0
 28 29  1  0
 29 30  1  0
 30 31  1  0
 16 32  1  0
 32 33  1  0
 33  2  1  0
 21 19  1  0
 30 25  1  0
 29 19  1  0
 30 26  1  0
  1 34  1  0
  1 35  1  0
  3 36  1  0
  3 37  1  0
  4 38  1  0
  4 39  1  0
  5 40  1  0
  5 41  1  0
  6 42  1  0
  8 43  1  0
 10 44  1  0
 10 45  1  0
 11 46  1  0
 11 47  1  0
 11 48  1  0
 12 49  1  0
 12 50  1  0
 13 51  1  0
 13 52  1  0
 14 53  1  0
 14 54  1  0
 15 55  1  0
 16 56  1  0
 17 57  1  0
 17 58  1  0
 18 59  1  0
 18 60  1  0
 20 61  1  0
 20 62  1  0
 21 63  1  0
 22 64  1  0
 22 65  1  0
 25 66  1  0
 26 67  1  0
 27 68  1  0
 27 69  1  0
 28 70  1  0
 28 71  1  0
 29 72  1  0
 31 73  1  0
 31 74  1  0
 31 75  1  0
 32 76  1  0
 32 77  1  0
 33 78  1  0
 33 79  1  0
M  END
$$$$
