
     RDKit          2D

 37 39  0  0  0  0  0  0  0  0999 V2000
   -7.8564   -4.2114    0.0000 C   0  0  0  0  0  0  0  0  0  0  0  0
   -7.1064   -5.5105    0.0000 C   0  0  0  0  0  0  0  0  0  0  0  0
   -6.3564   -6.8095    0.0000 C   0  0  0  0  0  0  0  0  0  0  0  0
   -5.8073   -4.7605    0.0000 C   0  0  0  0  0  0  0  0  0  0  0  0
   -4.5083   -4.0105    0.0000 C   0  0  0  0  0  0  0  0  0  0  0  0
   -3.2093   -3.2605    0.0000 C   0  0  0  0  0  0  0  0  0  0  0  0
   -2.2451   -4.4095    0.0000 C   0  0  0  0  0  0  0  0  0  0  0  0
   -1.7321   -3.0000    0.0000 C   0  0  0  0  0  0  0  0  0  0  0  0
   -1.7321   -1.5000    0.0000 C   0  0  0  0  0  0  0  0  0  0  0  0
   -3.0311   -0.7500    0.0000 C   0  0  0  0  0  0  0  0  0  0  0  0
   -3.0311    0.7500    0.0000 C   0  0  0  0  0  0  0  0  0  0  0  0
   -1.7321    1.5000    0.0000 C   0  0  0  0  0  0  0  0  0  0  0  0
   -0.4330    0.7500    0.0000 C   0  0  0  0  0  0  0  0  0  0  0  0
    0.8660    0.0000    0.0000 C   0  0  0  0  0  0  0  0  0  0  0  0
   -0.4330   -0.7500    0.0000 C   0  0  0  0  0  0  0  0  0  0  0  0
   -8.6064   -2.9124    0.0000 H   0  0  0  0  0  0  0  0  0  0  0  0
   -9.1554   -4.9614    0.0000 H   0  0  0  0  0  0  0  0  0  0  0  0
   -7.1490   -3.6784    0.0000 H   0  0  0  0  0  0  0  0  0  0  0  0
   -8.4054   -6.2605    0.0000 H   0  0  0  0  0  0  0  0  0  0  0  0
   -5.6064   -8.1085    0.0000 H   0  0  0  0  0  0  0  0  0  0  0  0
   -7.6554   -7.5595    0.0000 H   0  0  0  0  0  0  0  0  0  0  0  0
   -5.5410   -6.4634    0.0000 H   0  0  0  0  0  0  0  0  0  0  0  0
   -5.2743   -5.4678    0.0000 H   0  0  0  0  0  0  0  0  0  0  0  0
   -6.1534   -3.9451    0.0000 H   0  0  0  0  0  0  0  0  0  0  0  0
   -3.9808   -5.2532    0.0000 H   0  0  0  0  0  0  0  0  0  0  0  0
   -5.2583   -2.7114    0.0000 H   0  0  0  0  0  0  0  0  0  0  0  0
   -3.7609   -2.1779    0.0000 H   0  0  0  0  0  0  0  0  0  0  0  0
   -0.9460   -5.1595    0.0000 H   0  0  0  0  0  0  0  0  0  0  0  0
   -2.9803   -5.5418    0.0000 H   0  0  0  0  0  0  0  0  0  0  0  0
   -0.2548   -3.2605    0.0000 H   0  0  0  0  0  0  0  0  0  0  0  0
   -4.1495   -1.2247    0.0000 H   0  0  0  0  0  0  0  0  0  0  0  0
   -4.3301    1.5000    0.0000 H   0  0  0  0  0  0  0  0  0  0  0  0
   -1.7321    3.0000    0.0000 H   0  0  0  0  0  0  0  0  0  0  0  0
    0.3170    2.0490    0.0000 H   0  0  0  0  0  0  0  0  0  0  0  0
    1.8302    1.1491    0.0000 H   0  0  0  0  0  0  0  0  0  0  0  0
    1.8302   -1.1491    0.0000 H   0  0  0  0  0  0  0  0  0  0  0  0
    0.3170   -2.0490    0.0000 H   0  0  0  0  0  0  0  0  0  0  0  0
  1  2  1  0
  2  3  1  0
  2  4  1  0
  4  5  1  0
  5  6  1  0
  6  7  1  0
  7  8  1  0
  8  9  1  0
  9 10  2  0
 10 11  1  0
 11 12  2  0
 12 13  1  0
 13 14  1  0
 14 15  1  0
  8  6  1  0
 15  9  1  0
 15 13  1  0
  1 16  1  0
  1 17  1  0
  1 18  1  0
  2 19  1  0
  3 20  1  0
  3 21  1  0
  3 22  1  0
  4 23  1  0
  4 24  1  0
  5 25  1  0
  5 26  1  0
  6 27  1  0
  7 28  1  0
  7 29  1  0
  8 30  1  0
 10 31  1  0
 11 32  1  0
 12 33  1  0
 13 34  1  0
 14 35  1  0
 14 36  1  0
 15 37  1  0
M  END
$$$$
