
     RDKit          2D

 61 65  0  0  0  0  0  0  0  0999 V2000
   -2.9564    1.3636    0.0000 C   0  0  0  0  0  0  0  0  0  0  0  0
   -1.5861    1.9737    0.0000 C   0  0  0  0  0  0  0  0  0  0  0  0
   -0.2158    2.5838    0.0000 C   0  0  0  0  0  0  0  0  0  0  0  0
    1.1545    3.1939    0.0000 C   0  0  0  0  0  0  0  0  0  0  0  0
    0.5444    4.5643    0.0000 N   0  0  0  0  0  0  0  0  0  0  0  0
    2.5248    3.8041    0.0000 C   0  0  0  0  0  0  0  0  0  0  0  0
    3.8951    4.4142    0.0000 N   0  0  0  0  0  0  0  0  0  0  0  0
    5.3869    4.2574    0.0000 C   0  0  0  0  0  0  0  0  0  0  0  0
    5.9970    2.8870    0.0000 C   0  0  0  0  0  0  0  0  0  0  0  0
    6.6071    1.5167    0.0000 Cl  0  0  0  0  0  0  0  0  0  0  0  0
    6.2686    5.4709    0.0000 C   0  0  0  0  0  0  0  0  0  0  0  0
    6.4254    6.9627    0.0000 C   0  0  0  0  0  0  0  0  0  0  0  0
    6.5822    8.4545    0.0000 C   0  0  0  0  0  0  0  0  0  0  0  0
    6.7390    9.9462    0.0000 Se  0  0  0  0  0  2  0  0  0  0  0  0
    4.9336    7.1195    0.0000 C   0  0  0  0  0  0  0  0  0  0  0  0
    3.4418    7.2763    0.0000 C   0  0  0  0  0  0  0  0  0  0  0  0
    1.9501    7.4331    0.0000 O   0  0  0  0  0  0  0  0  0  0  0  0
    4.7768    5.6277    0.0000 C   0  0  0  0  0  0  0  0  0  0  0  0
    0.3943    1.2135    0.0000 C   0  0  0  0  0  0  0  0  0  0  0  0
    1.2760    0.0000    0.0000 C   0  0  0  0  0  0  0  0  0  0  0  0
    0.3943   -1.2135    0.0000 C   0  0  0  0  0  0  0  0  0  0  0  0
   -1.0323   -0.7500    0.0000 C   0  0  0  0  0  0  0  0  0  0  0  0
   -1.0323    0.7500    0.0000 C   0  0  0  0  0  0  0  0  0  0  0  0
   -1.9140   -0.4635    0.0000 C   0  0  0  0  0  0  0  0  0  0  0  0
   -1.0323   -1.6771    0.0000 C   0  0  0  0  0  0  0  0  0  0  0  0
   -2.3313   -2.4271    0.0000 C   0  0  0  0  0  0  0  0  0  0  0  0
   -4.3268    0.7535    0.0000 H   0  0  0  0  0  0  0  0  0  0  0  0
   -3.0612   -0.1327    0.0000 H   0  0  0  0  0  0  0  0  0  0  0  0
   -3.5665    2.7340    0.0000 H   0  0  0  0  0  0  0  0  0  0  0  0
   -1.4477    1.1887    0.0000 H   0  0  0  0  0  0  0  0  0  0  0  0
   -2.1962    3.3441    0.0000 H   0  0  0  0  0  0  0  0  0  0  0  0
   -0.9884    3.8696    0.0000 H   0  0  0  0  0  0  0  0  0  0  0  0
    1.9271    1.9082    0.0000 H   0  0  0  0  0  0  0  0  0  0  0  0
    1.2716    5.8762    0.0000 H   0  0  0  0  0  0  0  0  0  0  0  0
   -0.9171    4.9017    0.0000 H   0  0  0  0  0  0  0  0  0  0  0  0
    2.0863    5.2385    0.0000 H   0  0  0  0  0  0  0  0  0  0  0  0
    3.1349    2.4337    0.0000 H   0  0  0  0  0  0  0  0  0  0  0  0
    7.3674    3.4972    0.0000 H   0  0  0  0  0  0  0  0  0  0  0  0
    4.6267    2.2769    0.0000 H   0  0  0  0  0  0  0  0  0  0  0  0
    7.6690    4.9333    0.0000 H   0  0  0  0  0  0  0  0  0  0  0  0
    7.9172    6.8059    0.0000 H   0  0  0  0  0  0  0  0  0  0  0  0
    8.0740    8.2977    0.0000 H   0  0  0  0  0  0  0  0  0  0  0  0
    5.1206    8.7919    0.0000 H   0  0  0  0  0  0  0  0  0  0  0  0
    8.1093   10.5563    0.0000 H   0  0  0  0  0  0  0  0  0  0  0  0
    4.9074    8.6192    0.0000 H   0  0  0  0  0  0  0  0  0  0  0  0
    3.5986    8.7680    0.0000 H   0  0  0  0  0  0  0  0  0  0  0  0
    3.2850    5.7845    0.0000 H   0  0  0  0  0  0  0  0  0  0  0  0
    1.3399    8.8034    0.0000 H   0  0  0  0  0  0  0  0  0  0  0  0
    1.7751    1.7996    0.0000 H   0  0  0  0  0  0  0  0  0  0  0  0
    2.3907    1.0037    0.0000 H   0  0  0  0  0  0  0  0  0  0  0  0
    2.3907   -1.0037    0.0000 H   0  0  0  0  0  0  0  0  0  0  0  0
    0.8578   -2.6401    0.0000 H   0  0  0  0  0  0  0  0  0  0  0  0
   -1.6899   -2.0982    0.0000 H   0  0  0  0  0  0  0  0  0  0  0  0
   -2.5177   -0.9588    0.0000 H   0  0  0  0  0  0  0  0  0  0  0  0
   -2.5177    0.9586    0.0000 H   0  0  0  0  0  0  0  0  0  0  0  0
   -3.1427    0.3968    0.0000 H   0  0  0  0  0  0  0  0  0  0  0  0
   -3.1427   -1.3239    0.0000 H   0  0  0  0  0  0  0  0  0  0  0  0
   -0.4222   -3.0474    0.0000 H   0  0  0  0  0  0  0  0  0  0  0  0
   -3.6304   -3.1771    0.0000 H   0  0  0  0  0  0  0  0  0  0  0  0
   -1.5813   -3.7261    0.0000 H   0  0  0  0  0  0  0  0  0  0  0  0
   -3.3734   -1.3481    0.0000 H   0  0  0  0  0  0  0  0  0  0  0  0
  1  2  1  0
  2  3  1  0
  3  4  1  0
  4  5  1  0
  4  6  1  0
  6  7  1  0
  7  8  1  0
  8  9  1  0
  9 10  1  0
  8 11  1  0
 11 12  1  0
 12 13  1  0
 13 14  1  0
 12 15  1  0
 15 16  1  0
 16 17  1  0
 15 18  1  0
  3 19  1  0
 19 20  1  0
 20 21  1  0
 21 22  1  0
 22 23  1  0
 23 24  1  0
 24 25  1  0
 25 26  1  0
 18  7  1  0
 23 19  1  0
 18  8  1  0
 25 21  1  0
 18 11  1  0
  1 27  1  0
  1 28  1  0
  1 29  1  0
  2 30  1  0
  2 31  1  0
  3 32  1  0
  4 33  1  0
  5 34  1  0
  5 35  1  0
  6 36  1  0
  6 37  1  0
  9 38  1  0
  9 39  1  0
 11 40  1  0
 12 41  1  0
 13 42  1  0
 13 43  1  0
 14 44  1  0
 15 45  1  0
 16 46  1  0
 16 47  1  0
 17 48  1  0
 19 49  1  0
 20 50  1  0
 20 51  1  0
 21 52  1  0
 22 53  1  0
 22 54  1  0
 23 55  1  0
 24 56  1  0
 24 57  1  0
 25 58  1  0
 26 59  1  0
 26 60  1  0
 26 61  1  0
M  END
$$$$
