
     RDKit          2D

 50 54  0  0  0  0  0  0  0  0999 V2000
    1.7400   -3.9997    0.0000 O   0  0  0  0  0  0  0  0  0  0  0  0
    1.1061   -2.6403    0.0000 C   0  0  0  0  0  0  0  0  0  0  0  0
   -0.3882   -2.5095    0.0000 C   0  0  0  0  0  0  0  0  0  0  0  0
   -1.8371   -2.8978    0.0000 C   0  0  0  0  0  0  0  0  0  0  0  0
   -2.8978   -1.8371    0.0000 O   0  0  0  0  0  0  0  0  0  0  0  0
   -2.5095   -0.3882    0.0000 C   0  0  0  0  0  0  0  0  0  0  0  0
   -1.0607    0.0000    0.0000 C   0  0  0  0  0  0  0  0  0  0  0  0
   -0.0000   -1.0607    0.0000 C   0  0  0  0  0  0  0  0  0  0  0  0
    1.0607    0.0000    0.0000 C   0  0  0  0  0  0  0  0  0  0  0  0
    0.0000    1.0607    0.0000 C   0  0  0  0  0  0  0  0  0  0  0  0
   -1.0607    2.1213    0.0000 C   0  0  0  0  0  0  0  0  0  0  0  0
   -0.0000    3.1820    0.0000 O   0  0  0  0  0  0  0  0  0  0  0  0
   -1.0607    4.2426    0.0000 C   0  0  0  0  0  0  0  0  0  0  0  0
   -2.5095    4.6309    0.0000 C   0  0  0  0  0  0  0  0  0  0  0  0
   -2.1213    3.1820    0.0000 C   0  0  0  0  0  0  0  0  0  0  0  0
   -3.4204    2.4320    0.0000 C   0  0  0  0  0  0  0  0  0  0  0  0
   -4.7194    1.6820    0.0000 C   0  0  0  0  0  0  0  0  0  0  0  0
   -6.0184    0.9320    0.0000 C   0  0  0  0  0  0  0  0  0  0  0  0
   -7.3175    0.1820    0.0000 C   0  0  0  0  0  0  0  0  0  0  0  0
   -8.6165   -0.5680    0.0000 C   0  0  0  0  0  0  0  0  0  0  0  0
  -10.0937   -0.8285    0.0000 C   0  0  0  0  0  0  0  0  0  0  0  0
   -9.5807    0.5810    0.0000 C   0  0  0  0  0  0  0  0  0  0  0  0
    2.0231   -1.8432    0.0000 H   0  0  0  0  0  0  0  0  0  0  0  0
   -0.2575   -4.0038    0.0000 H   0  0  0  0  0  0  0  0  0  0  0  0
   -1.2032   -4.2572    0.0000 H   0  0  0  0  0  0  0  0  0  0  0  0
   -3.0658   -3.7581    0.0000 H   0  0  0  0  0  0  0  0  0  0  0  0
   -4.0086   -0.4406    0.0000 H   0  0  0  0  0  0  0  0  0  0  0  0
   -2.7369    0.6814    0.0000 H   0  0  0  0  0  0  0  0  0  0  0  0
   -1.5937    0.7074    0.0000 H   0  0  0  0  0  0  0  0  0  0  0  0
    1.1184   -1.5354    0.0000 H   0  0  0  0  0  0  0  0  0  0  0  0
    2.1213    1.0607    0.0000 H   0  0  0  0  0  0  0  0  0  0  0  0
    2.2427   -0.9235    0.0000 H   0  0  0  0  0  0  0  0  0  0  0  0
    1.0607    2.1213    0.0000 H   0  0  0  0  0  0  0  0  0  0  0  0
   -1.6888    1.6306    0.0000 H   0  0  0  0  0  0  0  0  0  0  0  0
   -0.3107    5.5417    0.0000 H   0  0  0  0  0  0  0  0  0  0  0  0
   -2.3788    6.1252    0.0000 H   0  0  0  0  0  0  0  0  0  0  0  0
   -4.0086    4.6833    0.0000 H   0  0  0  0  0  0  0  0  0  0  0  0
   -4.3231    3.6299    0.0000 H   0  0  0  0  0  0  0  0  0  0  0  0
   -2.8343    1.0512    0.0000 H   0  0  0  0  0  0  0  0  0  0  0  0
   -5.4694    2.9810    0.0000 H   0  0  0  0  0  0  0  0  0  0  0  0
   -4.1333    0.3012    0.0000 H   0  0  0  0  0  0  0  0  0  0  0  0
   -6.7684    2.2310    0.0000 H   0  0  0  0  0  0  0  0  0  0  0  0
   -5.2684   -0.3671    0.0000 H   0  0  0  0  0  0  0  0  0  0  0  0
   -6.5675   -1.1171    0.0000 H   0  0  0  0  0  0  0  0  0  0  0  0
   -7.9035    1.5628    0.0000 H   0  0  0  0  0  0  0  0  0  0  0  0
   -8.1035   -1.9776    0.0000 H   0  0  0  0  0  0  0  0  0  0  0  0
  -10.0937   -2.3285    0.0000 H   0  0  0  0  0  0  0  0  0  0  0  0
  -11.5709   -0.5680    0.0000 H   0  0  0  0  0  0  0  0  0  0  0  0
  -10.8797    1.3310    0.0000 H   0  0  0  0  0  0  0  0  0  0  0  0
   -8.7638    1.8391    0.0000 H   0  0  0  0  0  0  0  0  0  0  0  0
  1  2  2  0
  2  3  1  0
  3  4  1  0
  4  5  1  0
  5  6  1  0
  6  7  1  0
  7  8  1  0
  8  9  1  0
  9 10  1  0
 10 11  1  0
 11 12  1  0
 12 13  1  0
 13 14  1  0
 14 15  1  0
 15 16  1  0
 16 17  1  0
 17 18  1  0
 18 19  1  0
 19 20  1  0
 20 21  1  0
 21 22  1  0
  8  3  1  0
 15 11  1  0
 22 20  1  0
 10  7  1  0
 15 13  1  0
  2 23  1  0
  3 24  1  0
  4 25  1  0
  4 26  1  0
  6 27  1  0
  6 28  1  0
  7 29  1  0
  8 30  1  0
  9 31  1  0
  9 32  1  0
 10 33  1  0
 11 34  1  0
 13 35  1  0
 14 36  1  0
 14 37  1  0
 16 38  1  0
 16 39  1  0
 17 40  1  0
 17 41  1  0
 18 42  1  0
 18 43  1  0
 19 44  1  0
 19 45  1  0
 20 46  1  0
 21 47  1  0
 21 48  1  0
 22 49  1  0
 22 50  1  0
M  END
$$$$
