
     RDKit          2D

 76 87  0  0  0  0  0  0  0  0999 V2000
   -7.7841   -6.7619    0.0000 C   0  0  0  0  0  0  0  0  0  0  0  0
   -6.4196   -6.1387    0.0000 C   0  0  0  0  0  0  0  0  0  0  0  0
   -5.0552   -5.5156    0.0000 C   0  0  0  0  0  0  0  0  0  0  0  0
   -3.6907   -4.8925    0.0000 C   0  0  0  0  0  0  0  0  0  0  0  0
   -4.7258   -3.8069    0.0000 C   0  0  0  0  0  0  0  0  0  0  0  0
   -5.0097   -2.3340    0.0000 C   0  0  0  0  0  0  0  0  0  0  0  0
   -4.4522   -0.9415    0.0000 C   0  0  0  0  0  0  0  0  0  0  0  0
   -3.2304   -0.0714    0.0000 C   0  0  0  0  0  0  0  0  0  0  0  0
   -1.7321    0.0000    0.0000 C   0  0  0  0  0  0  0  0  0  0  0  0
   -0.4330    0.7500    0.0000 C   0  0  0  0  0  0  0  0  0  0  0  0
    0.8660    0.0000    0.0000 C   0  0  0  0  0  0  0  0  0  0  0  0
   -0.4330   -0.7500    0.0000 C   0  0  0  0  0  0  0  0  0  0  0  0
    0.2543   -2.0833    0.0000 O   0  0  0  0  0  0  0  0  0  0  0  0
    0.1117   -3.5765    0.0000 C   0  0  0  0  0  0  0  0  0  0  0  0
    0.6692   -4.9690    0.0000 C   0  0  0  0  0  0  0  0  0  0  0  0
    1.9526   -5.7456    0.0000 F   0  0  0  0  0  0  0  0  0  0  0  0
    0.0891   -5.9521    0.0000 C   0  0  0  0  0  0  0  0  0  0  0  0
   -0.7693   -7.1822    0.0000 C   0  0  0  0  0  0  0  0  0  0  0  0
    0.3643   -8.1644    0.0000 C   0  0  0  0  0  0  0  0  0  0  0  0
   -1.0532   -8.6550    0.0000 C   0  0  0  0  0  0  0  0  0  0  0  0
   -0.8162  -10.1362    0.0000 C   0  0  0  0  0  0  0  0  0  0  0  0
   -1.1000  -11.6091    0.0000 C   0  0  0  0  0  0  0  0  0  0  0  0
   -0.9930  -13.1053    0.0000 C   0  0  0  0  0  0  0  0  0  0  0  0
   -0.5024  -14.5228    0.0000 C   0  0  0  0  0  0  0  0  0  0  0  0
   -1.9753  -14.2389    0.0000 C   0  0  0  0  0  0  0  0  0  0  0  0
   -3.4715  -14.3459    0.0000 C   0  0  0  0  0  0  0  0  0  0  0  0
   -4.6051  -13.3636    0.0000 C   0  0  0  0  0  0  0  0  0  0  0  0
   -4.7121  -11.8674    0.0000 C   0  0  0  0  0  0  0  0  0  0  0  0
   -5.2027  -10.4499    0.0000 C   0  0  0  0  0  0  0  0  0  0  0  0
   -3.7298  -10.7338    0.0000 C   0  0  0  0  0  0  0  0  0  0  0  0
   -3.0744   -9.3846    0.0000 C   0  0  0  0  0  0  0  0  0  0  0  0
   -2.2337  -10.6268    0.0000 C   0  0  0  0  0  0  0  0  0  0  0  0
   -2.2044   -6.7459    0.0000 C   0  0  0  0  0  0  0  0  0  0  0  0
   -2.2330   -5.2461    0.0000 C   0  0  0  0  0  0  0  0  0  0  0  0
   -0.8155   -4.7555    0.0000 C   0  0  0  0  0  0  0  0  0  0  0  0
   -9.1485   -7.3850    0.0000 H   0  0  0  0  0  0  0  0  0  0  0  0
   -8.4072   -5.3974    0.0000 H   0  0  0  0  0  0  0  0  0  0  0  0
   -7.1609   -8.1263    0.0000 H   0  0  0  0  0  0  0  0  0  0  0  0
   -5.7965   -7.5032    0.0000 H   0  0  0  0  0  0  0  0  0  0  0  0
   -7.0427   -4.7743    0.0000 H   0  0  0  0  0  0  0  0  0  0  0  0
   -5.4722   -4.8363    0.0000 H   0  0  0  0  0  0  0  0  0  0  0  0
   -4.6030   -6.9459    0.0000 H   0  0  0  0  0  0  0  0  0  0  0  0
   -3.7312   -6.3920    0.0000 H   0  0  0  0  0  0  0  0  0  0  0  0
   -5.4736   -4.0831    0.0000 H   0  0  0  0  0  0  0  0  0  0  0  0
   -6.5029   -2.1914    0.0000 H   0  0  0  0  0  0  0  0  0  0  0  0
   -5.0471    0.4355    0.0000 H   0  0  0  0  0  0  0  0  0  0  0  0
   -5.9505   -0.8701    0.0000 H   0  0  0  0  0  0  0  0  0  0  0  0
   -2.9863    1.4086    0.0000 H   0  0  0  0  0  0  0  0  0  0  0  0
   -4.3370    0.9412    0.0000 H   0  0  0  0  0  0  0  0  0  0  0  0
   -1.9761    1.4800    0.0000 H   0  0  0  0  0  0  0  0  0  0  0  0
   -0.4330    2.2500    0.0000 H   0  0  0  0  0  0  0  0  0  0  0  0
    1.8302    1.1491    0.0000 H   0  0  0  0  0  0  0  0  0  0  0  0
    1.8302   -1.1491    0.0000 H   0  0  0  0  0  0  0  0  0  0  0  0
    1.5965   -3.3630    0.0000 H   0  0  0  0  0  0  0  0  0  0  0  0
    1.5812   -6.1065    0.0000 H   0  0  0  0  0  0  0  0  0  0  0  0
    1.5286   -7.2186    0.0000 H   0  0  0  0  0  0  0  0  0  0  0  0
    1.2480   -9.3765    0.0000 H   0  0  0  0  0  0  0  0  0  0  0  0
   -2.5530   -8.6312    0.0000 H   0  0  0  0  0  0  0  0  0  0  0  0
    0.6696  -10.3426    0.0000 H   0  0  0  0  0  0  0  0  0  0  0  0
    0.3973  -11.6983    0.0000 H   0  0  0  0  0  0  0  0  0  0  0  0
    0.4764  -12.8039    0.0000 H   0  0  0  0  0  0  0  0  0  0  0  0
    0.9787  -14.2858    0.0000 H   0  0  0  0  0  0  0  0  0  0  0  0
   -0.5262  -16.0226    0.0000 H   0  0  0  0  0  0  0  0  0  0  0  0
   -2.0645  -15.7362    0.0000 H   0  0  0  0  0  0  0  0  0  0  0  0
   -4.6020  -15.3318    0.0000 H   0  0  0  0  0  0  0  0  0  0  0  0
   -2.9809  -15.7634    0.0000 H   0  0  0  0  0  0  0  0  0  0  0  0
   -6.0780  -13.0797    0.0000 H   0  0  0  0  0  0  0  0  0  0  0  0
   -5.4201  -14.6229    0.0000 H   0  0  0  0  0  0  0  0  0  0  0  0
   -6.1815  -12.1688    0.0000 H   0  0  0  0  0  0  0  0  0  0  0  0
   -6.6839  -10.6869    0.0000 H   0  0  0  0  0  0  0  0  0  0  0  0
   -5.1789   -8.9501    0.0000 H   0  0  0  0  0  0  0  0  0  0  0  0
   -4.2893   -8.5048    0.0000 H   0  0  0  0  0  0  0  0  0  0  0  0
   -1.9971   -8.3409    0.0000 H   0  0  0  0  0  0  0  0  0  0  0  0
   -2.4883   -8.2188    0.0000 H   0  0  0  0  0  0  0  0  0  0  0  0
   -3.6856   -6.9830    0.0000 H   0  0  0  0  0  0  0  0  0  0  0  0
   -2.8431   -3.8758    0.0000 H   0  0  0  0  0  0  0  0  0  0  0  0
  1  2  1  0
  2  3  1  0
  3  4  1  0
  4  5  1  0
  5  6  2  0
  6  7  1  0
  7  8  1  0
  8  9  1  0
  9 10  1  0
 10 11  1  0
 11 12  1  0
 12 13  1  1
 13 14  1  0
 14 15  1  0
 15 16  1  1
 15 17  1  0
 17 18  1  0
 18 19  1  1
 19 20  1  0
 20 21  1  0
 21 22  1  0
 22 23  1  0
 23 24  1  0
 24 25  1  0
 25 26  1  0
 26 27  1  0
 27 28  1  0
 28 29  1  0
 30 29  1  1
 30 31  1  0
 32 31  1  6
 18 33  1  0
 33 34  1  0
 34 35  1  0
 34  4  1  0
 12  9  1  0
 35 14  1  0
 12 10  1  0
 35 15  1  1
 35 17  1  0
 20 18  1  0
 32 21  1  0
 32 22  1  0
 25 23  1  0
 30 28  1  0
 32 30  1  0
  1 36  1  0
  1 37  1  0
  1 38  1  0
  2 39  1  0
  2 40  1  0
  3 41  1  0
  3 42  1  0
  4 43  1  1
  5 44  1  0
  6 45  1  0
  7 46  1  0
  7 47  1  0
  8 48  1  0
  8 49  1  0
  9 50  1  6
 10 51  1  1
 11 52  1  0
 11 53  1  0
 14 54  1  1
 17 55  1  6
 19 56  1  0
 19 57  1  0
 20 58  1  6
 21 59  1  1
 22 60  1  6
 23 61  1  1
 24 62  1  0
 24 63  1  0
 25 64  1  1
 26 65  1  0
 26 66  1  0
 27 67  1  0
 27 68  1  0
 28 69  1  6
 29 70  1  0
 29 71  1  0
 31 72  1  0
 31 73  1  0
 33 74  1  0
 33 75  1  0
 34 76  1  1
M  END
$$$$
