
     RDKit          2D

 76 80  0  0  0  0  0  0  0  0999 V2000
   -1.5414    7.6321    0.0000 C   0  0  0  0  0  0  0  0  0  0  0  0
   -0.3923    6.6679    0.0000 C   0  0  0  0  0  0  0  0  0  0  0  0
   -0.6528    5.1907    0.0000 C   0  0  0  0  0  0  0  0  0  0  0  0
   -2.0624    4.6776    0.0000 O   0  0  0  0  0  0  0  0  0  0  0  0
    0.4963    4.2265    0.0000 C   0  0  0  0  0  0  0  0  0  0  0  0
    1.6453    3.2623    0.0000 C   0  0  0  0  0  0  0  0  0  0  0  0
    2.7944    2.2981    0.0000 C   0  0  0  0  0  0  0  0  0  0  0  0
    3.9435    1.3340    0.0000 C   0  0  0  0  0  0  0  0  0  0  0  0
    5.0925    0.3698    0.0000 C   0  0  0  0  0  0  0  0  0  0  0  0
    1.8302    1.1491    0.0000 C   0  0  0  0  0  0  0  0  0  0  0  0
    0.8660    0.0000    0.0000 C   0  0  0  0  0  0  0  0  0  0  0  0
   -0.4330    0.7500    0.0000 C   0  0  0  0  0  0  0  0  0  0  0  0
   -1.7321    1.5000    0.0000 C   0  0  0  0  0  0  0  0  0  0  0  0
   -3.0311    0.7500    0.0000 C   0  0  0  0  0  0  0  0  0  0  0  0
   -4.3301    1.5000    0.0000 C   0  0  0  0  0  0  0  0  0  0  0  0
   -5.6292    0.7500    0.0000 C   0  0  0  0  0  0  0  0  0  0  0  0
   -5.6292   -0.7500    0.0000 C   0  0  0  0  0  0  0  0  0  0  0  0
   -4.3301   -1.5000    0.0000 C   0  0  0  0  0  0  0  0  0  0  0  0
   -3.0311   -0.7500    0.0000 C   0  0  0  0  0  0  0  0  0  0  0  0
   -1.7321   -1.5000    0.0000 C   0  0  0  0  0  0  0  0  0  0  0  0
   -0.3806   -2.1508    0.0000 C   0  0  0  0  0  0  0  0  0  0  0  0
   -0.0468   -3.6132    0.0000 C   0  0  0  0  0  0  0  0  0  0  0  0
   -0.9821   -4.7860    0.0000 C   0  0  0  0  0  0  0  0  0  0  0  0
   -2.4821   -4.7860    0.0000 C   0  0  0  0  0  0  0  0  0  0  0  0
   -3.4173   -3.6132    0.0000 C   0  0  0  0  0  0  0  0  0  0  0  0
   -4.3525   -4.7860    0.0000 N   0  0  0  0  0  0  0  0  0  0  0  0
   -5.8431   -4.9539    0.0000 C   0  0  0  0  0  0  0  0  0  0  0  0
   -5.6751   -6.4445    0.0000 N   0  0  0  0  0  0  0  0  0  0  0  0
   -4.1846   -6.2765    0.0000 C   0  0  0  0  0  0  0  0  0  0  0  0
   -2.6940   -6.1086    0.0000 O   0  0  0  0  0  0  0  0  0  0  0  0
   -3.0835   -2.1508    0.0000 C   0  0  0  0  0  0  0  0  0  0  0  0
   -0.4330   -0.7500    0.0000 C   0  0  0  0  0  0  0  0  0  0  0  0
   -1.2809    9.1093    0.0000 H   0  0  0  0  0  0  0  0  0  0  0  0
   -2.9509    7.1190    0.0000 H   0  0  0  0  0  0  0  0  0  0  0  0
    1.0172    7.1809    0.0000 H   0  0  0  0  0  0  0  0  0  0  0  0
   -0.3207    2.9685    0.0000 H   0  0  0  0  0  0  0  0  0  0  0  0
    1.4604    5.3756    0.0000 H   0  0  0  0  0  0  0  0  0  0  0  0
    2.2283    3.8060    0.0000 H   0  0  0  0  0  0  0  0  0  0  0  0
    2.0795    3.9309    0.0000 H   0  0  0  0  0  0  0  0  0  0  0  0
    3.7586    3.4472    0.0000 H   0  0  0  0  0  0  0  0  0  0  0  0
    4.9076    2.4830    0.0000 H   0  0  0  0  0  0  0  0  0  0  0  0
    3.1265    0.0759    0.0000 H   0  0  0  0  0  0  0  0  0  0  0  0
    6.2416   -0.5944    0.0000 H   0  0  0  0  0  0  0  0  0  0  0  0
    6.0567    1.5188    0.0000 H   0  0  0  0  0  0  0  0  0  0  0  0
    4.1283   -0.7793    0.0000 H   0  0  0  0  0  0  0  0  0  0  0  0
    0.8072    2.2461    0.0000 H   0  0  0  0  0  0  0  0  0  0  0  0
    2.8532    0.0520    0.0000 H   0  0  0  0  0  0  0  0  0  0  0  0
    1.8302   -1.1491    0.0000 H   0  0  0  0  0  0  0  0  0  0  0  0
    0.1530    2.1308    0.0000 H   0  0  0  0  0  0  0  0  0  0  0  0
   -2.5490    2.7580    0.0000 H   0  0  0  0  0  0  0  0  0  0  0  0
   -0.6350    2.5230    0.0000 H   0  0  0  0  0  0  0  0  0  0  0  0
   -3.2139    2.2388    0.0000 H   0  0  0  0  0  0  0  0  0  0  0  0
   -4.3301    3.0000    0.0000 H   0  0  0  0  0  0  0  0  0  0  0  0
   -6.9282    1.5000    0.0000 H   0  0  0  0  0  0  0  0  0  0  0  0
   -6.1422   -2.1595    0.0000 H   0  0  0  0  0  0  0  0  0  0  0  0
   -7.1064   -0.4895    0.0000 H   0  0  0  0  0  0  0  0  0  0  0  0
   -3.6726   -2.8482    0.0000 H   0  0  0  0  0  0  0  0  0  0  0  0
   -5.5437   -2.3816    0.0000 H   0  0  0  0  0  0  0  0  0  0  0  0
   -1.7321    0.0000    0.0000 H   0  0  0  0  0  0  0  0  0  0  0  0
    0.2971   -0.8127    0.0000 H   0  0  0  0  0  0  0  0  0  0  0  0
    1.1194   -2.1508    0.0000 H   0  0  0  0  0  0  0  0  0  0  0  0
    1.3739   -3.1320    0.0000 H   0  0  0  0  0  0  0  0  0  0  0  0
    1.0244   -4.6632    0.0000 H   0  0  0  0  0  0  0  0  0  0  0  0
    0.2800   -5.5967    0.0000 H   0  0  0  0  0  0  0  0  0  0  0  0
   -1.1351   -6.2781    0.0000 H   0  0  0  0  0  0  0  0  0  0  0  0
   -1.9725   -6.1968    0.0000 H   0  0  0  0  0  0  0  0  0  0  0  0
   -3.6359   -5.7445    0.0000 H   0  0  0  0  0  0  0  0  0  0  0  0
   -4.8861   -3.3087    0.0000 H   0  0  0  0  0  0  0  0  0  0  0  0
   -7.3337   -5.1219    0.0000 H   0  0  0  0  0  0  0  0  0  0  0  0
   -6.0110   -3.4633    0.0000 H   0  0  0  0  0  0  0  0  0  0  0  0
   -6.6104   -7.6172    0.0000 H   0  0  0  0  0  0  0  0  0  0  0  0
   -4.0166   -7.7671    0.0000 H   0  0  0  0  0  0  0  0  0  0  0  0
   -1.8033   -7.3155    0.0000 H   0  0  0  0  0  0  0  0  0  0  0  0
   -4.5389   -2.5138    0.0000 H   0  0  0  0  0  0  0  0  0  0  0  0
   -3.7612   -0.8127    0.0000 H   0  0  0  0  0  0  0  0  0  0  0  0
    0.7328   -1.6939    0.0000 H   0  0  0  0  0  0  0  0  0  0  0  0
  1  2  2  3
  2  3  1  0
  3  4  2  0
  3  5  1  0
  5  6  1  0
  6  7  1  0
  7  8  1  0
  8  9  1  0
  7 10  1  0
 10 11  1  0
 11 12  1  0
 12 13  1  0
 13 14  1  0
 14 15  1  0
 15 16  2  0
 16 17  1  0
 17 18  1  0
 18 19  1  0
 19 20  1  0
 20 21  1  0
 21 22  1  0
 22 23  1  0
 23 24  1  0
 24 25  1  0
 25 26  1  0
 26 27  1  0
 27 28  1  0
 28 29  1  0
 29 30  1  0
 25 31  1  0
 20 32  1  0
 32 11  1  0
 32 12  1  0
 19 14  1  0
 31 20  1  0
 29 26  1  0
  1 33  1  0
  1 34  1  0
  2 35  1  0
  5 36  1  0
  5 37  1  0
  6 38  1  0
  6 39  1  0
  7 40  1  0
  8 41  1  0
  8 42  1  0
  9 43  1  0
  9 44  1  0
  9 45  1  0
 10 46  1  0
 10 47  1  0
 11 48  1  0
 12 49  1  0
 13 50  1  0
 13 51  1  0
 14 52  1  0
 15 53  1  0
 16 54  1  0
 17 55  1  0
 17 56  1  0
 18 57  1  0
 18 58  1  0
 19 59  1  0
 21 60  1  0
 21 61  1  0
 22 62  1  0
 22 63  1  0
 23 64  1  0
 23 65  1  0
 24 66  1  0
 24 67  1  0
 25 68  1  0
 27 69  1  0
 27 70  1  0
 28 71  1  0
 29 72  1  0
 30 73  1  0
 31 74  1  0
 31 75  1  0
 32 76  1  0
M  END
$$$$
