
     RDKit          2D

 89 93  0  0  0  0  0  0  0  0999 V2000
    1.6556    2.8197    0.0000 C   0  0  0  0  0  0  0  0  0  0  0  0
    3.1388    3.0432    0.0000 C   0  0  0  0  0  0  0  0  0  0  0  0
    3.6868    4.4395    0.0000 C   0  0  0  0  0  0  0  0  0  0  0  0
    4.2349    5.8358    0.0000 C   0  0  0  0  0  0  0  0  0  0  0  0
    4.7829    7.2321    0.0000 O   0  0  0  0  0  0  0  0  0  0  0  0
    2.8385    6.3838    0.0000 O   0  0  0  0  0  0  0  0  0  0  0  0
    4.0741    1.8705    0.0000 C   0  0  0  0  0  0  0  0  0  0  0  0
    5.0093    0.6977    0.0000 C   0  0  0  0  0  0  0  0  0  0  0  0
    2.9013    0.9352    0.0000 C   0  0  0  0  0  0  0  0  0  0  0  0
    1.7286    0.0000    0.0000 C   0  0  0  0  0  0  0  0  0  0  0  0
    1.0777    1.3515    0.0000 N   0  0  0  0  0  0  0  0  0  0  0  0
   -0.3846    1.6852    0.0000 N   0  0  0  0  0  0  0  0  0  0  0  0
   -1.5574    0.7500    0.0000 C   0  0  0  0  0  0  0  0  0  0  0  0
   -3.0198    0.4162    0.0000 C   0  0  0  0  0  0  0  0  0  0  0  0
   -1.5574   -0.7500    0.0000 C   0  0  0  0  0  0  0  0  0  0  0  0
   -2.2082   -2.1015    0.0000 C   0  0  0  0  0  0  0  0  0  0  0  0
   -2.8590   -3.4529    0.0000 C   0  0  0  0  0  0  0  0  0  0  0  0
   -3.5099   -4.8044    0.0000 C   0  0  0  0  0  0  0  0  0  0  0  0
   -4.8613   -4.1535    0.0000 N   0  0  0  0  0  0  0  0  0  0  0  0
   -5.5121   -5.5050    0.0000 C   0  0  0  0  0  0  0  0  0  0  0  0
   -4.1607   -6.1558    0.0000 C   0  0  0  0  0  0  0  0  0  0  0  0
   -2.8092   -6.8066    0.0000 C   0  0  0  0  0  0  0  0  0  0  0  0
   -1.4578   -7.4575    0.0000 C   0  0  0  0  0  0  0  0  0  0  0  0
   -0.3846   -1.6852    0.0000 O   0  0  0  0  0  0  0  0  0  0  0  0
    1.0777   -1.3515    0.0000 C   0  0  0  0  0  0  0  0  0  0  0  0
    2.5401   -1.6852    0.0000 C   0  0  0  0  0  0  0  0  0  0  0  0
    4.0025   -2.0190    0.0000 C   0  0  0  0  0  0  0  0  0  0  0  0
    5.4649   -2.3528    0.0000 C   0  0  0  0  0  0  0  0  0  0  0  0
    5.3902   -3.8509    0.0000 C   0  0  0  0  0  0  0  0  0  0  0  0
    4.0553   -4.5352    0.0000 C   0  0  0  0  0  0  0  0  0  0  0  0
    2.7205   -5.2196    0.0000 C   0  0  0  0  0  0  0  0  0  0  0  0
    1.3857   -5.9039    0.0000 C   0  0  0  0  0  0  0  0  0  0  0  0
    0.0509   -6.5882    0.0000 C   0  0  0  0  0  0  0  0  0  0  0  0
    6.6502   -4.6648    0.0000 C   0  0  0  0  0  0  0  0  0  0  0  0
    7.9850   -3.9804    0.0000 C   0  0  0  0  0  0  0  0  0  0  0  0
    6.7250   -3.1666    0.0000 C   0  0  0  0  0  0  0  0  0  0  0  0
    1.1934    2.1701    0.0000 H   0  0  0  0  0  0  0  0  0  0  0  0
    0.7204    3.9924    0.0000 H   0  0  0  0  0  0  0  0  0  0  0  0
    2.2905    4.9875    0.0000 H   0  0  0  0  0  0  0  0  0  0  0  0
    5.0832    3.8915    0.0000 H   0  0  0  0  0  0  0  0  0  0  0  0
    5.6312    5.2878    0.0000 H   0  0  0  0  0  0  0  0  0  0  0  0
    3.8476    8.4049    0.0000 H   0  0  0  0  0  0  0  0  0  0  0  0
    2.6150    7.8671    0.0000 H   0  0  0  0  0  0  0  0  0  0  0  0
    5.2468    2.8057    0.0000 H   0  0  0  0  0  0  0  0  0  0  0  0
    6.0805   -0.3523    0.0000 H   0  0  0  0  0  0  0  0  0  0  0  0
    6.1821    1.6330    0.0000 H   0  0  0  0  0  0  0  0  0  0  0  0
    3.8366   -0.2375    0.0000 H   0  0  0  0  0  0  0  0  0  0  0  0
    1.8301    1.9852    0.0000 H   0  0  0  0  0  0  0  0  0  0  0  0
    3.8366   -0.2375    0.0000 H   0  0  0  0  0  0  0  0  0  0  0  0
    3.0066   -0.7853    0.0000 H   0  0  0  0  0  0  0  0  0  0  0  0
    1.5305    2.7815    0.0000 H   0  0  0  0  0  0  0  0  0  0  0  0
   -0.7184    3.1476    0.0000 H   0  0  0  0  0  0  0  0  0  0  0  0
   -2.2082    2.1015    0.0000 H   0  0  0  0  0  0  0  0  0  0  0  0
   -4.4822    0.0824    0.0000 H   0  0  0  0  0  0  0  0  0  0  0  0
   -3.3536    1.8786    0.0000 H   0  0  0  0  0  0  0  0  0  0  0  0
   -2.8668   -1.0760    0.0000 H   0  0  0  0  0  0  0  0  0  0  0  0
   -3.0496   -0.5970    0.0000 H   0  0  0  0  0  0  0  0  0  0  0  0
   -3.5597   -1.4506    0.0000 H   0  0  0  0  0  0  0  0  0  0  0  0
   -0.8568   -2.7523    0.0000 H   0  0  0  0  0  0  0  0  0  0  0  0
   -1.5076   -4.1037    0.0000 H   0  0  0  0  0  0  0  0  0  0  0  0
   -4.2105   -2.8021    0.0000 H   0  0  0  0  0  0  0  0  0  0  0  0
   -2.0892   -5.2856    0.0000 H   0  0  0  0  0  0  0  0  0  0  0  0
   -5.3567   -2.7377    0.0000 H   0  0  0  0  0  0  0  0  0  0  0  0
   -6.1630   -6.8564    0.0000 H   0  0  0  0  0  0  0  0  0  0  0  0
   -6.8636   -4.8542    0.0000 H   0  0  0  0  0  0  0  0  0  0  0  0
   -4.8115   -7.5073    0.0000 H   0  0  0  0  0  0  0  0  0  0  0  0
   -3.4601   -8.1581    0.0000 H   0  0  0  0  0  0  0  0  0  0  0  0
   -1.9985   -5.5446    0.0000 H   0  0  0  0  0  0  0  0  0  0  0  0
   -0.1957   -8.2682    0.0000 H   0  0  0  0  0  0  0  0  0  0  0  0
   -2.1086   -8.8089    0.0000 H   0  0  0  0  0  0  0  0  0  0  0  0
   -0.9766   -6.0368    0.0000 H   0  0  0  0  0  0  0  0  0  0  0  0
    1.0777   -2.8515    0.0000 H   0  0  0  0  0  0  0  0  0  0  0  0
    2.0306   -3.0960    0.0000 H   0  0  0  0  0  0  0  0  0  0  0  0
    3.0497   -0.2744    0.0000 H   0  0  0  0  0  0  0  0  0  0  0  0
    3.4930   -3.4298    0.0000 H   0  0  0  0  0  0  0  0  0  0  0  0
    4.3363   -0.5566    0.0000 H   0  0  0  0  0  0  0  0  0  0  0  0
    6.2117   -1.0519    0.0000 H   0  0  0  0  0  0  0  0  0  0  0  0
    4.7397   -5.8701    0.0000 H   0  0  0  0  0  0  0  0  0  0  0  0
    3.2134   -3.2938    0.0000 H   0  0  0  0  0  0  0  0  0  0  0  0
    3.4049   -6.5544    0.0000 H   0  0  0  0  0  0  0  0  0  0  0  0
    1.8786   -3.9781    0.0000 H   0  0  0  0  0  0  0  0  0  0  0  0
    2.0700   -7.2387    0.0000 H   0  0  0  0  0  0  0  0  0  0  0  0
    0.7014   -4.5691    0.0000 H   0  0  0  0  0  0  0  0  0  0  0  0
   -1.0786   -7.5752    0.0000 H   0  0  0  0  0  0  0  0  0  0  0  0
    0.8928   -7.8296    0.0000 H   0  0  0  0  0  0  0  0  0  0  0  0
   -0.4656   -5.1799    0.0000 H   0  0  0  0  0  0  0  0  0  0  0  0
    6.5754   -6.1629    0.0000 H   0  0  0  0  0  0  0  0  0  0  0  0
    8.8907   -5.1761    0.0000 H   0  0  0  0  0  0  0  0  0  0  0  0
    9.0053   -2.8809    0.0000 H   0  0  0  0  0  0  0  0  0  0  0  0
  1  2  2  3
  2  3  1  0
  3  4  1  0
  4  5  1  0
  4  6  1  0
  2  7  1  0
  7  8  1  0
  7  9  1  0
  9 10  1  0
 10 11  1  0
 11 12  1  0
 12 13  1  0
 13 14  1  0
 13 15  1  0
 15 16  1  0
 16 17  1  0
 17 18  1  0
 18 19  1  0
 19 20  1  0
 20 21  1  0
 21 22  1  0
 22 23  1  0
 15 24  1  0
 24 25  1  0
 25 26  1  0
 26 27  1  0
 27 28  1  0
 28 29  1  0
 29 30  1  0
 30 31  1  0
 31 32  1  0
 32 33  1  0
 29 34  1  0
 34 35  1  0
 35 36  1  0
 25 10  1  0
 36 28  1  0
 21 18  1  0
 36 29  1  0
 36 34  1  0
  1 37  1  0
  1 38  1  0
  3 39  1  0
  3 40  1  0
  4 41  1  0
  5 42  1  0
  6 43  1  0
  7 44  1  0
  8 45  1  0
  8 46  1  0
  8 47  1  0
  9 48  1  0
  9 49  1  0
 10 50  1  0
 11 51  1  0
 12 52  1  0
 13 53  1  0
 14 54  1  0
 14 55  1  0
 14 56  1  0
 15 57  1  0
 16 58  1  0
 16 59  1  0
 17 60  1  0
 17 61  1  0
 18 62  1  0
 19 63  1  0
 20 64  1  0
 20 65  1  0
 21 66  1  0
 22 67  1  0
 22 68  1  0
 23 69  1  0
 23 70  1  0
 23 71  1  0
 25 72  1  0
 26 73  1  0
 26 74  1  0
 27 75  1  0
 27 76  1  0
 28 77  1  0
 30 78  1  0
 30 79  1  0
 31 80  1  0
 31 81  1  0
 32 82  1  0
 32 83  1  0
 33 84  1  0
 33 85  1  0
 33 86  1  0
 34 87  1  0
 35 88  1  0
 35 89  1  0
M  END
$$$$
