
     RDKit          2D

 25 25  0  0  0  0  0  0  0  0999 V2000
    2.0965    5.8209    0.0000 C   0  0  0  0  0  0  0  0  0  0  0  0
    1.1323    4.6719    0.0000 O   0  0  0  0  0  0  0  0  0  0  0  0
    1.6453    3.2623    0.0000 S   0  0  0  0  0  3  0  0  0  0  0  0
    0.6811    2.1132    0.0000 C   0  0  0  0  0  0  0  0  0  0  0  0
   -0.2496    2.8942    0.0000 O   0  0  0  0  0  1  0  0  0  0  0  0
    1.8302    1.1491    0.0000 C   0  0  0  0  0  0  0  0  0  0  0  0
    2.9793    0.1849    0.0000 C   0  0  0  0  0  0  0  0  0  0  0  0
    4.1283   -0.7793    0.0000 O   0  0  0  0  0  0  0  0  0  0  0  0
    3.9435    1.3340    0.0000 O   0  0  0  0  0  0  0  0  0  0  0  0
    0.8660    0.0000    0.0000 C   0  0  0  0  0  0  0  0  0  0  0  0
   -0.4330    0.7500    0.0000 C   0  0  0  0  0  0  0  0  0  0  0  0
   -0.4330   -0.7500    0.0000 N   0  0  0  0  0  0  0  0  0  0  0  0
    3.0607    6.9700    0.0000 H   0  0  0  0  0  0  0  0  0  0  0  0
    0.9474    6.7851    0.0000 H   0  0  0  0  0  0  0  0  0  0  0  0
    3.2455    4.8567    0.0000 H   0  0  0  0  0  0  0  0  0  0  0  0
    3.1433    3.1839    0.0000 H   0  0  0  0  0  0  0  0  0  0  0  0
    0.0362    1.6447    0.0000 H   0  0  0  0  0  0  0  0  0  0  0  0
    2.9273    2.1720    0.0000 H   0  0  0  0  0  0  0  0  0  0  0  0
    2.3837   -0.7322    0.0000 H   0  0  0  0  0  0  0  0  0  0  0  0
    3.8679   -2.2565    0.0000 H   0  0  0  0  0  0  0  0  0  0  0  0
    5.4207    1.0735    0.0000 H   0  0  0  0  0  0  0  0  0  0  0  0
    1.4616   -0.9171    0.0000 H   0  0  0  0  0  0  0  0  0  0  0  0
   -1.9102    1.0105    0.0000 H   0  0  0  0  0  0  0  0  0  0  0  0
   -0.3302    1.7288    0.0000 H   0  0  0  0  0  0  0  0  0  0  0  0
   -1.1830   -2.0490    0.0000 H   0  0  0  0  0  0  0  0  0  0  0  0
  1  2  1  0
  2  3  1  0
  3  4  1  0
  4  5  1  0
  4  6  1  0
  6  7  1  0
  7  8  1  0
  7  9  1  0
  6 10  1  0
 10 11  1  0
 11 12  1  0
 12 10  1  0
  1 13  1  0
  1 14  1  0
  1 15  1  0
  3 16  1  0
  4 17  1  0
  6 18  1  0
  7 19  1  0
  8 20  1  0
  9 21  1  0
 10 22  1  0
 11 23  1  0
 11 24  1  0
 12 25  1  0
M  RAD  2   3   2   5   2
M  END
$$$$
