
     RDKit          2D

 34 34  0  0  0  0  0  0  0  0999 V2000
    7.3073   -0.8089    0.0000 C   0  0  0  0  0  0  0  0  0  0  0  0
    5.9215   -0.2349    0.0000 C   0  0  0  0  0  0  0  0  0  0  0  0
    4.5357    0.3391    0.0000 C   0  0  0  0  0  0  0  0  0  0  0  0
    3.1499    0.9131    0.0000 N   0  0  0  0  0  0  0  0  0  0  0  0
    1.9598    0.0000    0.0000 C   0  0  0  0  0  0  0  0  0  0  0  0
    1.3858   -1.3858    0.0000 C   0  0  0  0  0  0  0  0  0  0  0  0
   -0.0000   -1.9598    0.0000 S   0  0  0  0  0  0  0  0  0  0  0  0
   -1.3858   -1.3858    0.0000 N   0  0  0  0  0  0  0  0  0  0  0  0
   -1.9598    0.0000    0.0000 C   0  0  0  0  0  0  0  0  0  0  0  0
   -1.3858    1.3858    0.0000 N   0  0  0  0  0  0  0  0  0  0  0  0
    0.0000    1.9598    0.0000 C   0  0  0  0  0  0  0  0  0  0  0  0
    1.3858    1.3858    0.0000 C   0  0  0  0  0  0  0  0  0  0  0  0
    1.5816    2.8730    0.0000 C   0  0  0  0  0  0  0  0  0  0  0  0
    8.6932   -1.3830    0.0000 H   0  0  0  0  0  0  0  0  0  0  0  0
    6.7333   -2.1948    0.0000 H   0  0  0  0  0  0  0  0  0  0  0  0
    7.8814    0.5769    0.0000 H   0  0  0  0  0  0  0  0  0  0  0  0
    5.3475   -1.6207    0.0000 H   0  0  0  0  0  0  0  0  0  0  0  0
    6.4955    1.1509    0.0000 H   0  0  0  0  0  0  0  0  0  0  0  0
    4.1349   -1.1063    0.0000 H   0  0  0  0  0  0  0  0  0  0  0  0
    5.1097    1.7249    0.0000 H   0  0  0  0  0  0  0  0  0  0  0  0
    3.2613    1.8910    0.0000 H   0  0  0  0  0  0  0  0  0  0  0  0
    3.0309   -0.8218    0.0000 H   0  0  0  0  0  0  0  0  0  0  0  0
    2.6928   -1.7239    0.0000 H   0  0  0  0  0  0  0  0  0  0  0  0
    1.5816   -2.8730    0.0000 H   0  0  0  0  0  0  0  0  0  0  0  0
   -2.4465   -2.4465    0.0000 H   0  0  0  0  0  0  0  0  0  0  0  0
   -3.1499   -0.9131    0.0000 H   0  0  0  0  0  0  0  0  0  0  0  0
   -3.1499    0.9131    0.0000 H   0  0  0  0  0  0  0  0  0  0  0  0
   -2.4465    2.4465    0.0000 H   0  0  0  0  0  0  0  0  0  0  0  0
   -0.9131    3.1499    0.0000 H   0  0  0  0  0  0  0  0  0  0  0  0
    0.2263    2.7242    0.0000 H   0  0  0  0  0  0  0  0  0  0  0  0
    2.3468    1.9077    0.0000 H   0  0  0  0  0  0  0  0  0  0  0  0
    1.7774    4.3602    0.0000 H   0  0  0  0  0  0  0  0  0  0  0  0
    2.9316    2.8612    0.0000 H   0  0  0  0  0  0  0  0  0  0  0  0
    0.8098    3.0726    0.0000 H   0  0  0  0  0  0  0  0  0  0  0  0
  1  2  1  0
  2  3  1  0
  3  4  1  0
  4  5  1  0
  5  6  1  0
  6  7  1  0
  7  8  1  0
  8  9  1  0
  9 10  1  0
 10 11  1  0
 11 12  1  0
 12 13  1  0
 12  5  1  0
  1 14  1  0
  1 15  1  0
  1 16  1  0
  2 17  1  0
  2 18  1  0
  3 19  1  0
  3 20  1  0
  4 21  1  0
  5 22  1  0
  6 23  1  0
  6 24  1  0
  8 25  1  0
  9 26  1  0
  9 27  1  0
 10 28  1  0
 11 29  1  0
 11 30  1  0
 12 31  1  0
 13 32  1  0
 13 33  1  0
 13 34  1  0
M  END
$$$$
