
     RDKit          2D

 45 48  0  0  0  0  0  0  0  0999 V2000
   -0.2132    5.1907    0.0000 C   0  0  0  0  0  0  0  0  0  0  0  0
    0.7510    4.0416    0.0000 C   0  0  0  0  0  0  0  0  0  0  0  0
    1.7151    2.8925    0.0000 C   0  0  0  0  0  0  0  0  0  0  0  0
    2.6793    1.7435    0.0000 C   0  0  0  0  0  0  0  0  0  0  0  0
    3.9784    0.9935    0.0000 C   0  0  0  0  0  0  0  0  0  0  0  0
    3.9784    2.4935    0.0000 C   0  0  0  0  0  0  0  0  0  0  0  0
    5.4556    2.7539    0.0000 C   0  0  0  0  0  0  0  0  0  0  0  0
    3.4653    3.9030    0.0000 O   0  0  0  0  0  0  0  0  0  0  0  0
    4.4295    5.0521    0.0000 F   0  0  0  0  0  0  0  0  0  0  0  0
   -0.3981    3.0774    0.0000 C   0  0  0  0  0  0  0  0  0  0  0  0
    0.5661    1.9284    0.0000 O   0  0  0  0  0  0  0  0  0  0  0  0
   -1.5472    2.1132    0.0000 C   0  0  0  0  0  0  0  0  0  0  0  0
   -2.6962    1.1491    0.0000 C   0  0  0  0  0  0  0  0  0  0  0  0
   -3.8453    0.1849    0.0000 C   0  0  0  0  0  0  0  0  0  0  0  0
   -5.2548   -0.3281    0.0000 C   0  0  0  0  0  0  0  0  0  0  0  0
   -4.9944    1.1491    0.0000 C   0  0  0  0  0  0  0  0  0  0  0  0
   -1.7321    0.0000    0.0000 C   0  0  0  0  0  0  0  0  0  0  0  0
   -0.4330    0.7500    0.0000 C   0  0  0  0  0  0  0  0  0  0  0  0
    0.8660    0.0000    0.0000 N   0  0  0  0  0  2  0  0  0  0  0  0
   -0.4330   -0.7500    0.0000 C   0  0  0  0  0  0  0  0  0  0  0  0
   -0.4330   -2.2500    0.0000 O   0  0  0  0  0  1  0  0  0  0  0  0
   -1.1774    6.3397    0.0000 H   0  0  0  0  0  0  0  0  0  0  0  0
    0.9359    6.1549    0.0000 H   0  0  0  0  0  0  0  0  0  0  0  0
   -1.4712    4.3738    0.0000 H   0  0  0  0  0  0  0  0  0  0  0  0
    1.9000    5.0058    0.0000 H   0  0  0  0  0  0  0  0  0  0  0  0
    2.5086    3.9848    0.0000 H   0  0  0  0  0  0  0  0  0  0  0  0
    1.2466    2.2476    0.0000 H   0  0  0  0  0  0  0  0  0  0  0  0
    1.7151    0.5944    0.0000 H   0  0  0  0  0  0  0  0  0  0  0  0
    3.4653   -0.4161    0.0000 H   0  0  0  0  0  0  0  0  0  0  0  0
    5.4128    0.5549    0.0000 H   0  0  0  0  0  0  0  0  0  0  0  0
    6.9328    3.0144    0.0000 H   0  0  0  0  0  0  0  0  0  0  0  0
    5.1951    4.2312    0.0000 H   0  0  0  0  0  0  0  0  0  0  0  0
    5.8942    1.3195    0.0000 H   0  0  0  0  0  0  0  0  0  0  0  0
   -1.4952    4.1004    0.0000 H   0  0  0  0  0  0  0  0  0  0  0  0
    1.9926    1.4647    0.0000 H   0  0  0  0  0  0  0  0  0  0  0  0
   -0.3336    1.2316    0.0000 H   0  0  0  0  0  0  0  0  0  0  0  0
   -2.5113    3.2623    0.0000 H   0  0  0  0  0  0  0  0  0  0  0  0
   -3.5132    2.4071    0.0000 H   0  0  0  0  0  0  0  0  0  0  0  0
   -3.2592   -1.1959    0.0000 H   0  0  0  0  0  0  0  0  0  0  0  0
   -4.9944   -1.8054    0.0000 H   0  0  0  0  0  0  0  0  0  0  0  0
   -6.7548   -0.3281    0.0000 H   0  0  0  0  0  0  0  0  0  0  0  0
   -6.4039    1.6621    0.0000 H   0  0  0  0  0  0  0  0  0  0  0  0
   -4.4083    2.5298    0.0000 H   0  0  0  0  0  0  0  0  0  0  0  0
   -2.5490   -1.2580    0.0000 H   0  0  0  0  0  0  0  0  0  0  0  0
   -0.4330    2.2500    0.0000 H   0  0  0  0  0  0  0  0  0  0  0  0
  1  2  1  0
  2  3  1  0
  3  4  1  0
  4  5  1  0
  5  6  1  0
  6  7  1  0
  6  8  1  6
  8  9  1  0
  2 10  1  0
 10 11  1  0
 10 12  1  0
 12 13  1  0
 13 14  1  0
 14 15  1  0
 15 16  1  0
 13 17  1  0
 17 18  1  0
 18 19  1  0
 19 20  1  0
 20 21  1  6
  6  4  1  0
 16 14  1  0
 20 17  1  0
 20 18  1  0
  1 22  1  0
  1 23  1  0
  1 24  1  0
  2 25  1  1
  3 26  1  0
  3 27  1  0
  4 28  1  1
  5 29  1  0
  5 30  1  0
  7 31  1  0
  7 32  1  0
  7 33  1  0
 10 34  1  1
 11 35  1  0
 12 36  1  0
 12 37  1  0
 13 38  1  6
 14 39  1  0
 15 40  1  0
 15 41  1  0
 16 42  1  0
 16 43  1  0
 17 44  1  1
 18 45  1  1
M  RAD  2  19   2  21   2
M  END
$$$$
