
     RDKit          2D

 63 65  0  0  0  0  0  0  0  0999 V2000
    3.4604    2.8799    0.0000 C   0  0  0  0  0  0  0  0  0  0  0  0
    4.9475    2.6841    0.0000 C   0  0  0  0  0  0  0  0  0  0  0  0
    6.4347    2.4883    0.0000 C   0  0  0  0  0  0  0  0  0  0  0  0
    4.7517    1.1969    0.0000 C   0  0  0  0  0  0  0  0  0  0  0  0
    4.5559   -0.2902    0.0000 C   0  0  0  0  0  0  0  0  0  0  0  0
    4.3602   -1.7774    0.0000 C   0  0  0  0  0  0  0  0  0  0  0  0
    4.1644   -3.2646    0.0000 C   0  0  0  0  0  0  0  0  0  0  0  0
    3.9686   -4.7517    0.0000 C   0  0  0  0  0  0  0  0  0  0  0  0
    4.2932   -6.2162    0.0000 C   0  0  0  0  0  0  0  0  0  0  0  0
    5.3992   -5.2028    0.0000 C   0  0  0  0  0  0  0  0  0  0  0  0
    2.8730   -1.5816    0.0000 C   0  0  0  0  0  0  0  0  0  0  0  0
    1.3858   -1.3858    0.0000 C   0  0  0  0  0  0  0  0  0  0  0  0
    1.9598    0.0000    0.0000 C   0  0  0  0  0  0  0  0  0  0  0  0
    1.3858    1.3858    0.0000 C   0  0  0  0  0  0  0  0  0  0  0  0
    0.0000    1.9598    0.0000 C   0  0  0  0  0  0  0  0  0  0  0  0
   -1.3858    1.3858    0.0000 O   0  0  0  0  0  0  0  0  0  0  0  0
   -1.9598    0.0000    0.0000 C   0  0  0  0  0  0  0  0  0  0  0  0
   -3.1499   -0.9131    0.0000 C   0  0  0  0  0  0  0  0  0  0  0  0
   -4.5804   -1.3642    0.0000 C   0  0  0  0  0  0  0  0  0  0  0  0
   -4.2558    0.1002    0.0000 C   0  0  0  0  0  0  0  0  0  0  0  0
   -1.3858   -1.3858    0.0000 C   0  0  0  0  0  0  0  0  0  0  0  0
   -0.0000   -1.9598    0.0000 C   0  0  0  0  0  0  0  0  0  0  0  0
    0.9131   -3.1499    0.0000 C   0  0  0  0  0  0  0  0  0  0  0  0
    2.0081    3.2555    0.0000 H   0  0  0  0  0  0  0  0  0  0  0  0
    3.6600    3.6517    0.0000 H   0  0  0  0  0  0  0  0  0  0  0  0
    3.4673    3.6770    0.0000 H   0  0  0  0  0  0  0  0  0  0  0  0
    5.1433    4.1713    0.0000 H   0  0  0  0  0  0  0  0  0  0  0  0
    7.9219    2.2925    0.0000 H   0  0  0  0  0  0  0  0  0  0  0  0
    6.8103    3.9405    0.0000 H   0  0  0  0  0  0  0  0  0  0  0  0
    6.4477    3.9883    0.0000 H   0  0  0  0  0  0  0  0  0  0  0  0
    6.2039    0.8213    0.0000 H   0  0  0  0  0  0  0  0  0  0  0  0
    6.2517    1.1839    0.0000 H   0  0  0  0  0  0  0  0  0  0  0  0
    3.0688   -0.0944    0.0000 H   0  0  0  0  0  0  0  0  0  0  0  0
    6.0431   -0.4860    0.0000 H   0  0  0  0  0  0  0  0  0  0  0  0
    5.8473   -1.9732    0.0000 H   0  0  0  0  0  0  0  0  0  0  0  0
    5.6643   -3.2776    0.0000 H   0  0  0  0  0  0  0  0  0  0  0  0
    2.6644   -3.2515    0.0000 H   0  0  0  0  0  0  0  0  0  0  0  0
    2.4892   -4.9993    0.0000 H   0  0  0  0  0  0  0  0  0  0  0  0
    2.9074   -6.7902    0.0000 H   0  0  0  0  0  0  0  0  0  0  0  0
    5.0992   -7.4813    0.0000 H   0  0  0  0  0  0  0  0  0  0  0  0
    6.5892   -6.1159    0.0000 H   0  0  0  0  0  0  0  0  0  0  0  0
    6.2488   -3.9666    0.0000 H   0  0  0  0  0  0  0  0  0  0  0  0
    3.0688   -0.0944    0.0000 H   0  0  0  0  0  0  0  0  0  0  0  0
    2.4974   -3.0338    0.0000 H   0  0  0  0  0  0  0  0  0  0  0  0
    2.1017   -2.7040    0.0000 H   0  0  0  0  0  0  0  0  0  0  0  0
    3.2523    0.7613    0.0000 H   0  0  0  0  0  0  0  0  0  0  0  0
    3.3355   -0.5980    0.0000 H   0  0  0  0  0  0  0  0  0  0  0  0
    1.5816    2.8730    0.0000 H   0  0  0  0  0  0  0  0  0  0  0  0
    2.8380    1.7614    0.0000 H   0  0  0  0  0  0  0  0  0  0  0  0
   -0.9131    3.1499    0.0000 H   0  0  0  0  0  0  0  0  0  0  0  0
    0.7613    3.2523    0.0000 H   0  0  0  0  0  0  0  0  0  0  0  0
   -3.0297    1.0514    0.0000 H   0  0  0  0  0  0  0  0  0  0  0  0
   -2.6246   -2.3182    0.0000 H   0  0  0  0  0  0  0  0  0  0  0  0
   -4.3847   -2.8514    0.0000 H   0  0  0  0  0  0  0  0  0  0  0  0
   -6.0790   -1.2988    0.0000 H   0  0  0  0  0  0  0  0  0  0  0  0
   -5.6416    0.6743    0.0000 H   0  0  0  0  0  0  0  0  0  0  0  0
   -3.6101    1.4541    0.0000 H   0  0  0  0  0  0  0  0  0  0  0  0
   -1.7614   -2.8380    0.0000 H   0  0  0  0  0  0  0  0  0  0  0  0
   -2.7040   -2.1017    0.0000 H   0  0  0  0  0  0  0  0  0  0  0  0
   -0.7613   -3.2523    0.0000 H   0  0  0  0  0  0  0  0  0  0  0  0
    1.6744   -4.4423    0.0000 H   0  0  0  0  0  0  0  0  0  0  0  0
   -0.2769   -4.0630    0.0000 H   0  0  0  0  0  0  0  0  0  0  0  0
    2.2056   -2.3886    0.0000 H   0  0  0  0  0  0  0  0  0  0  0  0
  1  2  1  0
  2  3  1  0
  2  4  1  0
  4  5  1  0
  5  6  1  0
  6  7  1  0
  7  8  1  0
  8  9  1  0
  9 10  1  0
  6 11  1  0
 11 12  1  0
 12 13  1  0
 13 14  1  0
 14 15  1  0
 15 16  1  0
 16 17  1  0
 17 18  1  0
 18 19  1  0
 19 20  1  0
 17 21  1  0
 21 22  1  0
 22 23  1  0
 10  8  1  0
 22 12  1  0
 20 18  1  0
  1 24  1  0
  1 25  1  0
  1 26  1  0
  2 27  1  0
  3 28  1  0
  3 29  1  0
  3 30  1  0
  4 31  1  0
  4 32  1  0
  5 33  1  0
  5 34  1  0
  6 35  1  0
  7 36  1  0
  7 37  1  0
  8 38  1  0
  9 39  1  0
  9 40  1  0
 10 41  1  0
 10 42  1  0
 11 43  1  0
 11 44  1  0
 12 45  1  0
 13 46  1  0
 13 47  1  0
 14 48  1  0
 14 49  1  0
 15 50  1  0
 15 51  1  0
 17 52  1  0
 18 53  1  0
 19 54  1  0
 19 55  1  0
 20 56  1  0
 20 57  1  0
 21 58  1  0
 21 59  1  0
 22 60  1  0
 23 61  1  0
 23 62  1  0
 23 63  1  0
M  END
$$$$
