
     RDKit          2D

 37 38  0  0  0  0  0  0  0  0999 V2000
    5.0509    5.3000    0.0000 C   0  0  0  0  0  0  0  0  0  0  0  0
    6.2000    4.3358    0.0000 C   0  0  0  0  0  0  0  0  0  0  0  0
    7.3490    3.3716    0.0000 C   0  0  0  0  0  0  0  0  0  0  0  0
    8.4981    2.4074    0.0000 C   0  0  0  0  0  0  0  0  0  0  0  0
    9.6472    1.4433    0.0000 C   0  0  0  0  0  0  0  0  0  0  0  0
   10.7962    0.4791    0.0000 O   0  0  0  0  0  0  0  0  0  0  0  0
   10.6113    2.5923    0.0000 O   0  0  0  0  0  0  0  0  0  0  0  0
    8.6830    0.2942    0.0000 Br  0  0  0  0  0  0  0  0  0  0  0  0
    5.2358    3.1867    0.0000 C   0  0  0  0  0  0  0  0  0  0  0  0
    4.2716    2.0377    0.0000 N   0  0  0  0  0  0  0  0  0  0  0  0
    2.7944    2.2981    0.0000 C   0  0  0  0  0  0  0  0  0  0  0  0
    1.8302    1.1491    0.0000 C   0  0  0  0  0  0  0  0  0  0  0  0
    0.8660    0.0000    0.0000 C   0  0  0  0  0  0  0  0  0  0  0  0
   -0.4330    0.7500    0.0000 C   0  0  0  0  0  0  0  0  0  0  0  0
   -1.7321    0.0000    0.0000 C   0  0  0  0  0  0  0  0  0  0  0  0
   -2.6962    1.1491    0.0000 O   0  0  0  0  0  0  0  0  0  0  0  0
   -0.4330   -0.7500    0.0000 C   0  0  0  0  0  0  0  0  0  0  0  0
    3.9018    6.2642    0.0000 H   0  0  0  0  0  0  0  0  0  0  0  0
    6.0151    6.4490    0.0000 H   0  0  0  0  0  0  0  0  0  0  0  0
    4.4031    4.6959    0.0000 H   0  0  0  0  0  0  0  0  0  0  0  0
    7.1641    5.4849    0.0000 H   0  0  0  0  0  0  0  0  0  0  0  0
    8.3132    4.5207    0.0000 H   0  0  0  0  0  0  0  0  0  0  0  0
    6.8666    2.6288    0.0000 H   0  0  0  0  0  0  0  0  0  0  0  0
    9.4623    3.5565    0.0000 H   0  0  0  0  0  0  0  0  0  0  0  0
    7.5339    1.2584    0.0000 H   0  0  0  0  0  0  0  0  0  0  0  0
   10.5358   -0.9981    0.0000 H   0  0  0  0  0  0  0  0  0  0  0  0
   12.0886    2.3318    0.0000 H   0  0  0  0  0  0  0  0  0  0  0  0
    4.4929    3.6691    0.0000 H   0  0  0  0  0  0  0  0  0  0  0  0
    5.8398    2.5389    0.0000 H   0  0  0  0  0  0  0  0  0  0  0  0
    2.2814    3.7077    0.0000 H   0  0  0  0  0  0  0  0  0  0  0  0
    0.6811    2.1132    0.0000 H   0  0  0  0  0  0  0  0  0  0  0  0
    2.9793    0.1849    0.0000 H   0  0  0  0  0  0  0  0  0  0  0  0
    1.8302   -1.1491    0.0000 H   0  0  0  0  0  0  0  0  0  0  0  0
   -0.4330    2.2500    0.0000 H   0  0  0  0  0  0  0  0  0  0  0  0
   -2.6962   -1.1491    0.0000 H   0  0  0  0  0  0  0  0  0  0  0  0
   -4.1734    0.8886    0.0000 H   0  0  0  0  0  0  0  0  0  0  0  0
   -0.4330   -2.2500    0.0000 H   0  0  0  0  0  0  0  0  0  0  0  0
  1  2  1  0
  2  3  1  0
  3  4  1  0
  4  5  1  0
  5  6  1  0
  5  7  1  0
  5  8  1  0
  2  9  1  0
  9 10  1  0
 10 11  2  3
 11 12  1  0
 12 13  1  0
 13 14  1  0
 14 15  1  0
 15 16  1  0
 15 17  1  0
 17 13  1  0
 17 14  1  0
  1 18  1  0
  1 19  1  0
  1 20  1  0
  2 21  1  1
  3 22  1  0
  3 23  1  0
  4 24  1  0
  4 25  1  0
  6 26  1  0
  7 27  1  0
  9 28  1  0
  9 29  1  0
 11 30  1  0
 12 31  1  0
 12 32  1  0
 13 33  1  6
 14 34  1  6
 15 35  1  6
 16 36  1  0
 17 37  1  6
M  END
$$$$
