
     RDKit          2D

 74 83  0  0  0  0  0  0  0  0999 V2000
   -7.6897    2.8491    0.0000 C   0  0  0  0  0  0  0  0  0  0  0  0
   -7.0213    1.5062    0.0000 C   0  0  0  0  0  0  0  0  0  0  0  0
   -5.5785    1.9164    0.0000 C   0  0  0  0  0  0  0  0  0  0  0  0
   -4.0849    1.7776    0.0000 C   0  0  0  0  0  0  0  0  0  0  0  0
   -2.7424    1.1087    0.0000 C   0  0  0  0  0  0  0  0  0  0  0  0
   -1.3234    1.5951    0.0000 C   0  0  0  0  0  0  0  0  0  0  0  0
   -0.8828    3.0289    0.0000 C   0  0  0  0  0  0  0  0  0  0  0  0
    0.8660    0.0000    0.0000 C   0  0  0  0  0  0  0  0  0  0  0  0
   -0.4330    0.7500    0.0000 N   0  0  0  0  0  0  0  0  0  0  0  0
   -1.7321    0.0000    0.0000 C   0  0  0  0  0  0  0  0  0  0  0  0
   -2.8468   -1.0037    0.0000 C   0  0  0  0  0  0  0  0  0  0  0  0
   -2.2367   -2.3740    0.0000 C   0  0  0  0  0  0  0  0  0  0  0  0
   -3.4502   -3.2557    0.0000 C   0  0  0  0  0  0  0  0  0  0  0  0
   -2.5685   -4.4692    0.0000 C   0  0  0  0  0  0  0  0  0  0  0  0
   -2.8032   -5.9507    0.0000 C   0  0  0  0  0  0  0  0  0  0  0  0
   -4.0867   -6.0740    0.0000 C   0  0  0  0  0  0  0  0  0  0  0  0
   -5.5803   -6.2121    0.0000 C   0  0  0  0  0  0  0  0  0  0  0  0
   -6.5210   -7.3805    0.0000 C   0  0  0  0  0  0  0  0  0  0  0  0
   -7.0230   -5.8013    0.0000 C   0  0  0  0  0  0  0  0  0  0  0  0
   -8.3222   -6.5510    0.0000 C   0  0  0  0  0  0  0  0  0  0  0  0
   -9.6214   -7.3007    0.0000 C   0  0  0  0  0  0  0  0  0  0  0  0
   -8.2198   -4.8971    0.0000 N   0  0  0  0  0  0  0  0  0  0  0  0
   -9.0092   -3.6216    0.0000 C   0  0  0  0  0  0  0  0  0  0  0  0
  -10.4238   -3.1227    0.0000 C   0  0  0  0  0  0  0  0  0  0  0  0
  -10.6991   -1.6482    0.0000 C   0  0  0  0  0  0  0  0  0  0  0  0
  -10.4573   -0.2841    0.0000 C   0  0  0  0  0  0  0  0  0  0  0  0
  -10.0688    1.1647    0.0000 N   0  0  0  0  0  0  0  0  0  0  0  0
   -9.0085   -0.6726    0.0000 C   0  0  0  0  0  0  0  0  0  0  0  0
   -8.2186    0.6025    0.0000 C   0  0  0  0  0  0  0  0  0  0  0  0
   -9.2845   -2.1470    0.0000 C   0  0  0  0  0  0  0  0  0  0  0  0
   -1.3550   -3.5875    0.0000 C   0  0  0  0  0  0  0  0  0  0  0  0
   -0.7449   -2.2172    0.0000 C   0  0  0  0  0  0  0  0  0  0  0  0
   -0.4330   -0.7500    0.0000 C   0  0  0  0  0  0  0  0  0  0  0  0
   -6.8608    4.0993    0.0000 H   0  0  0  0  0  0  0  0  0  0  0  0
   -9.1868    2.9418    0.0000 H   0  0  0  0  0  0  0  0  0  0  0  0
   -5.2219    2.8336    0.0000 H   0  0  0  0  0  0  0  0  0  0  0  0
   -6.5186    3.0852    0.0000 H   0  0  0  0  0  0  0  0  0  0  0  0
   -2.9456    2.7533    0.0000 H   0  0  0  0  0  0  0  0  0  0  0  0
   -4.2665    2.7449    0.0000 H   0  0  0  0  0  0  0  0  0  0  0  0
   -1.8381    2.3056    0.0000 H   0  0  0  0  0  0  0  0  0  0  0  0
    0.5792    3.3643    0.0000 H   0  0  0  0  0  0  0  0  0  0  0  0
   -1.9043    4.1274    0.0000 H   0  0  0  0  0  0  0  0  0  0  0  0
    2.3660    0.0000    0.0000 H   0  0  0  0  0  0  0  0  0  0  0  0
   -3.7284    0.2098    0.0000 H   0  0  0  0  0  0  0  0  0  0  0  0
   -3.9652   -1.4784    0.0000 H   0  0  0  0  0  0  0  0  0  0  0  0
   -4.6637   -4.1374    0.0000 H   0  0  0  0  0  0  0  0  0  0  0  0
   -4.2788   -2.3671    0.0000 H   0  0  0  0  0  0  0  0  0  0  0  0
   -2.8555   -7.4498    0.0000 H   0  0  0  0  0  0  0  0  0  0  0  0
   -1.3216   -6.1854    0.0000 H   0  0  0  0  0  0  0  0  0  0  0  0
   -3.5973   -6.0203    0.0000 H   0  0  0  0  0  0  0  0  0  0  0  0
   -4.3641   -7.5481    0.0000 H   0  0  0  0  0  0  0  0  0  0  0  0
   -3.0753   -7.1817    0.0000 H   0  0  0  0  0  0  0  0  0  0  0  0
   -5.0374   -7.6104    0.0000 H   0  0  0  0  0  0  0  0  0  0  0  0
   -7.3122   -8.6549    0.0000 H   0  0  0  0  0  0  0  0  0  0  0  0
   -5.3525   -8.3211    0.0000 H   0  0  0  0  0  0  0  0  0  0  0  0
   -7.8823   -6.7505    0.0000 H   0  0  0  0  0  0  0  0  0  0  0  0
   -7.2046   -7.2902    0.0000 H   0  0  0  0  0  0  0  0  0  0  0  0
   -7.7364   -7.9319    0.0000 H   0  0  0  0  0  0  0  0  0  0  0  0
   -9.2247   -5.3529    0.0000 H   0  0  0  0  0  0  0  0  0  0  0  0
  -10.9206   -8.0504    0.0000 H   0  0  0  0  0  0  0  0  0  0  0  0
  -10.3711   -6.0015    0.0000 H   0  0  0  0  0  0  0  0  0  0  0  0
   -8.8716   -8.5999    0.0000 H   0  0  0  0  0  0  0  0  0  0  0  0
   -9.4434   -5.7647    0.0000 H   0  0  0  0  0  0  0  0  0  0  0  0
   -9.9498   -4.7900    0.0000 H   0  0  0  0  0  0  0  0  0  0  0  0
  -11.5631   -4.0984    0.0000 H   0  0  0  0  0  0  0  0  0  0  0  0
  -11.8064   -0.6363    0.0000 H   0  0  0  0  0  0  0  0  0  0  0  0
  -11.8479    0.2782    0.0000 H   0  0  0  0  0  0  0  0  0  0  0  0
  -11.1292    2.2256    0.0000 H   0  0  0  0  0  0  0  0  0  0  0  0
   -8.6779    1.7263    0.0000 H   0  0  0  0  0  0  0  0  0  0  0  0
  -10.4967   -0.4850    0.0000 H   0  0  0  0  0  0  0  0  0  0  0  0
   -8.4041    2.0910    0.0000 H   0  0  0  0  0  0  0  0  0  0  0  0
   -9.6010    1.1847    0.0000 H   0  0  0  0  0  0  0  0  0  0  0  0
   -0.1893   -4.5315    0.0000 H   0  0  0  0  0  0  0  0  0  0  0  0
    0.6817   -2.6807    0.0000 H   0  0  0  0  0  0  0  0  0  0  0  0
  1  2  2  3
  2  3  1  0
  3  4  1  0
  4  5  1  0
  5  6  1  0
  6  7  2  3
  6  8  1  0
  8  9  1  0
  9 10  1  0
 10 11  1  6
 12 11  1  1
 12 13  1  0
 13 14  1  0
 14 15  1  6
 14 16  1  0
 16 17  1  0
 17 18  1  0
 17 19  1  0
 19 20  1  0
 20 21  1  0
 19 22  1  0
 22 23  1  0
 23 24  1  0
 24 25  1  0
 25 26  1  0
 26 27  1  0
 26 28  1  0
 28 29  1  0
 30 28  1  1
 14 31  1  0
 31 32  1  0
 32 33  1  0
 29  2  1  0
 10  5  1  0
 31 12  1  0
 33  8  1  0
 33  9  1  1
 33 10  1  0
 32 12  1  0
 30 23  1  0
 30 24  1  0
 30 25  1  0
  1 34  1  0
  1 35  1  0
  3 36  1  0
  3 37  1  0
  4 38  1  0
  4 39  1  0
  5 40  1  1
  7 41  1  0
  7 42  1  0
  8 43  1  1
 11 44  1  0
 11 45  1  0
 13 46  1  0
 13 47  1  0
 15 48  1  0
 15 49  1  0
 15 50  1  0
 16 51  1  0
 16 52  1  0
 17 53  1  6
 18 54  1  0
 18 55  1  0
 18 56  1  0
 19 57  1  6
 20 58  1  0
 20 59  1  0
 21 60  1  0
 21 61  1  0
 21 62  1  0
 22 63  1  0
 23 64  1  1
 24 65  1  1
 25 66  1  6
 26 67  1  1
 27 68  1  0
 27 69  1  0
 28 70  1  6
 29 71  1  0
 29 72  1  0
 31 73  1  6
 32 74  1  6
M  END
$$$$
