
     RDKit          2D

 32 34  0  0  0  0  0  0  0  0999 V2000
    0.0000    3.1820    0.0000 C   0  0  0  0  0  0  0  0  0  0  0  0
   -1.0607    2.1213    0.0000 C   0  0  0  0  0  0  0  0  0  0  0  0
   -2.1213    1.0607    0.0000 C   0  0  0  0  0  0  0  0  0  0  0  0
   -1.0607    0.0000    0.0000 C   0  0  0  0  0  0  0  0  0  0  0  0
   -2.1213   -1.0607    0.0000 C   0  0  0  0  0  0  0  0  0  0  0  0
   -3.1820   -2.1213    0.0000 C   0  0  0  0  0  0  0  0  0  0  0  0
   -3.8159   -3.4808    0.0000 C   0  0  0  0  0  0  0  0  0  0  0  0
   -2.3216   -3.3500    0.0000 C   0  0  0  0  0  0  0  0  0  0  0  0
   -3.1820    0.0000    0.0000 C   0  0  0  0  0  0  0  0  0  0  0  0
   -4.5414    0.6339    0.0000 C   0  0  0  0  0  0  0  0  0  0  0  0
   -4.4107   -0.8604    0.0000 C   0  0  0  0  0  0  0  0  0  0  0  0
    0.0000    1.0607    0.0000 C   0  0  0  0  0  0  0  0  0  0  0  0
    1.0607    4.2426    0.0000 H   0  0  0  0  0  0  0  0  0  0  0  0
   -1.0607    4.2426    0.0000 H   0  0  0  0  0  0  0  0  0  0  0  0
    1.1820    2.2585    0.0000 H   0  0  0  0  0  0  0  0  0  0  0  0
   -2.1213    3.1820    0.0000 H   0  0  0  0  0  0  0  0  0  0  0  0
   -3.1820    2.1213    0.0000 H   0  0  0  0  0  0  0  0  0  0  0  0
   -2.8046    0.6501    0.0000 H   0  0  0  0  0  0  0  0  0  0  0  0
    0.0000   -1.0607    0.0000 H   0  0  0  0  0  0  0  0  0  0  0  0
   -0.9393   -1.9841    0.0000 H   0  0  0  0  0  0  0  0  0  0  0  0
   -4.5824   -1.5838    0.0000 H   0  0  0  0  0  0  0  0  0  0  0  0
   -5.2648   -3.0926    0.0000 H   0  0  0  0  0  0  0  0  0  0  0  0
   -3.9466   -4.9751    0.0000 H   0  0  0  0  0  0  0  0  0  0  0  0
   -1.9334   -4.7989    0.0000 H   0  0  0  0  0  0  0  0  0  0  0  0
   -0.8950   -2.8866    0.0000 H   0  0  0  0  0  0  0  0  0  0  0  0
   -2.6445    1.4004    0.0000 H   0  0  0  0  0  0  0  0  0  0  0  0
   -4.1532    2.0828    0.0000 H   0  0  0  0  0  0  0  0  0  0  0  0
   -6.0357    0.7647    0.0000 H   0  0  0  0  0  0  0  0  0  0  0  0
   -5.8596   -1.2486    0.0000 H   0  0  0  0  0  0  0  0  0  0  0  0
   -4.1246   -2.3328    0.0000 H   0  0  0  0  0  0  0  0  0  0  0  0
    1.0607   -0.0000    0.0000 H   0  0  0  0  0  0  0  0  0  0  0  0
    1.1820    1.9841    0.0000 H   0  0  0  0  0  0  0  0  0  0  0  0
  1  2  1  0
  2  3  1  0
  3  4  1  0
  4  5  1  0
  5  6  1  0
  6  7  1  0
  7  8  1  0
  5  9  1  0
  9 10  1  0
 10 11  1  0
  4 12  1  0
 12  2  1  0
  8  6  1  0
 11  9  1  0
  1 13  1  0
  1 14  1  0
  1 15  1  0
  2 16  1  0
  3 17  1  0
  3 18  1  0
  4 19  1  0
  5 20  1  0
  6 21  1  0
  7 22  1  0
  7 23  1  0
  8 24  1  0
  8 25  1  0
  9 26  1  0
 10 27  1  0
 10 28  1  0
 11 29  1  0
 11 30  1  0
 12 31  1  0
 12 32  1  0
M  END
$$$$
