
     RDKit          2D

 53 56  0  0  0  0  0  0  0  0999 V2000
   -4.5174  -11.8202    0.0000 C   0  0  0  0  0  0  0  0  0  0  0  0
   -3.1079  -11.3072    0.0000 C   0  0  0  0  0  0  0  0  0  0  0  0
   -2.8474   -9.8300    0.0000 C   0  0  0  0  0  0  0  0  0  0  0  0
   -3.9965   -8.8658    0.0000 C   0  0  0  0  0  0  0  0  0  0  0  0
   -2.5869   -8.3528    0.0000 C   0  0  0  0  0  0  0  0  0  0  0  0
   -2.3265   -6.8756    0.0000 N   0  0  0  0  0  0  0  0  0  0  0  0
   -0.9169   -6.3625    0.0000 C   0  0  0  0  0  0  0  0  0  0  0  0
   -3.4755   -5.9114    0.0000 C   0  0  0  0  0  0  0  0  0  0  0  0
   -4.6246   -4.9472    0.0000 C   0  0  0  0  0  0  0  0  0  0  0  0
   -5.7737   -3.9830    0.0000 C   0  0  0  0  0  0  0  0  0  0  0  0
   -3.6604   -3.7981    0.0000 C   0  0  0  0  0  0  0  0  0  0  0  0
   -4.2645   -3.1503    0.0000 I   0  0  0  0  0  0  0  0  0  0  0  0
   -2.6962   -2.6491    0.0000 C   0  0  0  0  0  0  0  0  0  0  0  0
   -1.7321   -1.5000    0.0000 C   0  0  0  0  0  0  0  0  0  0  0  0
   -3.0311   -0.7500    0.0000 C   0  0  0  0  0  0  0  0  0  0  0  0
   -3.0311    0.7500    0.0000 O   0  0  0  0  0  0  0  0  0  0  0  0
   -1.7321    1.5000    0.0000 C   0  0  0  0  0  0  0  0  0  0  0  0
   -0.4330    0.7500    0.0000 C   0  0  0  0  0  0  0  0  0  0  0  0
    0.8660    0.0000    0.0000 O   0  0  0  0  0  0  0  0  0  0  0  0
   -0.4330   -0.7500    0.0000 C   0  0  0  0  0  0  0  0  0  0  0  0
   -1.4379   -9.3170    0.0000 C   0  0  0  0  0  0  0  0  0  0  0  0
   -0.2888   -8.3528    0.0000 C   0  0  0  0  0  0  0  0  0  0  0  0
    1.1207   -8.8658    0.0000 O   0  0  0  0  0  0  0  0  0  0  0  0
   -0.6879  -10.6160    0.0000 C   0  0  0  0  0  0  0  0  0  0  0  0
    0.0621  -11.9150    0.0000 O   0  0  0  0  0  0  0  0  0  0  0  0
   -4.7779  -13.2974    0.0000 H   0  0  0  0  0  0  0  0  0  0  0  0
   -5.6665  -10.8560    0.0000 H   0  0  0  0  0  0  0  0  0  0  0  0
   -2.0849  -12.4043    0.0000 H   0  0  0  0  0  0  0  0  0  0  0  0
   -5.1455   -9.8300    0.0000 H   0  0  0  0  0  0  0  0  0  0  0  0
   -4.8090   -7.7877    0.0000 H   0  0  0  0  0  0  0  0  0  0  0  0
    0.4926   -5.8495    0.0000 H   0  0  0  0  0  0  0  0  0  0  0  0
    0.0673   -7.4945    0.0000 H   0  0  0  0  0  0  0  0  0  0  0  0
   -1.4300   -4.9530    0.0000 H   0  0  0  0  0  0  0  0  0  0  0  0
   -4.4629   -6.8321    0.0000 H   0  0  0  0  0  0  0  0  0  0  0  0
   -2.8277   -5.3073    0.0000 H   0  0  0  0  0  0  0  0  0  0  0  0
   -5.5888   -6.0963    0.0000 H   0  0  0  0  0  0  0  0  0  0  0  0
   -6.9227   -3.0188    0.0000 H   0  0  0  0  0  0  0  0  0  0  0  0
   -6.7378   -5.1321    0.0000 H   0  0  0  0  0  0  0  0  0  0  0  0
   -5.2913   -3.2402    0.0000 H   0  0  0  0  0  0  0  0  0  0  0  0
   -2.9176   -4.2805    0.0000 H   0  0  0  0  0  0  0  0  0  0  0  0
   -3.5216   -2.1131    0.0000 H   0  0  0  0  0  0  0  0  0  0  0  0
   -1.5472   -3.6132    0.0000 H   0  0  0  0  0  0  0  0  0  0  0  0
   -0.7679   -2.6491    0.0000 H   0  0  0  0  0  0  0  0  0  0  0  0
   -4.5083   -0.4895    0.0000 H   0  0  0  0  0  0  0  0  0  0  0  0
   -3.4779   -1.6269    0.0000 H   0  0  0  0  0  0  0  0  0  0  0  0
   -0.7679    2.6491    0.0000 H   0  0  0  0  0  0  0  0  0  0  0  0
   -2.6962    2.6491    0.0000 H   0  0  0  0  0  0  0  0  0  0  0  0
    0.3170    2.0490    0.0000 H   0  0  0  0  0  0  0  0  0  0  0  0
    0.3170   -2.0490    0.0000 H   0  0  0  0  0  0  0  0  0  0  0  0
   -0.0025   -6.8804    0.0000 H   0  0  0  0  0  0  0  0  0  0  0  0
    0.6112   -9.8660    0.0000 H   0  0  0  0  0  0  0  0  0  0  0  0
   -1.8858  -11.5187    0.0000 H   0  0  0  0  0  0  0  0  0  0  0  0
   -0.6879  -13.2141    0.0000 H   0  0  0  0  0  0  0  0  0  0  0  0
  1  2  2  3
  2  3  1  0
  3  4  1  0
  4  5  1  0
  5  6  1  0
  6  7  1  0
  6  8  1  0
  8  9  1  0
  9 10  1  0
  9 11  1  0
 11 12  1  0
 11 13  1  0
 13 14  1  0
 14 15  1  0
 15 16  1  0
 16 17  1  0
 17 18  1  0
 18 19  1  0
 19 20  1  0
  5 21  1  0
 21 22  1  0
 22 23  2  0
 21 24  1  0
 24 25  1  0
  5  3  1  0
 20 14  1  0
 21  3  1  0
 20 18  1  0
  1 26  1  0
  1 27  1  0
  2 28  1  0
  4 29  1  0
  4 30  1  0
  7 31  1  0
  7 32  1  0
  7 33  1  0
  8 34  1  0
  8 35  1  0
  9 36  1  0
 10 37  1  0
 10 38  1  0
 10 39  1  0
 11 40  1  0
 13 41  1  0
 13 42  1  0
 14 43  1  0
 15 44  1  0
 15 45  1  0
 17 46  1  0
 17 47  1  0
 18 48  1  0
 20 49  1  0
 22 50  1  0
 24 51  1  0
 24 52  1  0
 25 53  1  0
M  END
$$$$
