
     RDKit          2D

120125  0  0  0  0  0  0  0  0999 V2000
    4.6201    3.0111    0.0000 C   0  0  0  0  0  0  0  0  0  0  0  0
    3.5054    2.0074    0.0000 C   0  0  0  0  0  0  0  0  0  0  0  0
    2.3907    1.0037    0.0000 C   0  0  0  0  0  0  0  0  0  0  0  0
    1.2760    0.0000    0.0000 C   0  0  0  0  0  0  0  0  0  0  0  0
    0.3943    1.2135    0.0000 C   0  0  0  0  0  0  0  0  0  0  0  0
   -1.0323    0.7500    0.0000 C   0  0  0  0  0  0  0  0  0  0  0  0
   -1.0323   -0.7500    0.0000 C   0  0  0  0  0  0  0  0  0  0  0  0
   -1.3442   -2.2172    0.0000 C   0  0  0  0  0  0  0  0  0  0  0  0
   -1.6560   -3.6844    0.0000 C   0  0  0  0  0  0  0  0  0  0  0  0
   -1.9679   -5.1517    0.0000 C   0  0  0  0  0  0  0  0  0  0  0  0
   -2.2798   -6.6189    0.0000 N   0  0  0  0  0  0  0  0  0  0  0  0
   -2.8114   -1.9054    0.0000 C   0  0  0  0  0  0  0  0  0  0  0  0
   -4.2786   -1.5935    0.0000 C   0  0  0  0  0  0  0  0  0  0  0  0
   -3.1232   -3.3726    0.0000 C   0  0  0  0  0  0  0  0  0  0  0  0
   -3.4351   -4.8398    0.0000 C   0  0  0  0  0  0  0  0  0  0  0  0
   -3.7470   -6.3070    0.0000 C   0  0  0  0  0  0  0  0  0  0  0  0
   -4.9023   -4.5279    0.0000 C   0  0  0  0  0  0  0  0  0  0  0  0
   -6.3696   -4.2161    0.0000 C   0  0  0  0  0  0  0  0  0  0  0  0
   -5.2142   -5.9952    0.0000 C   0  0  0  0  0  0  0  0  0  0  0  0
   -6.7133   -5.9428    0.0000 C   0  0  0  0  0  0  0  0  0  0  0  0
   -5.0054   -7.4806    0.0000 C   0  0  0  0  0  0  0  0  0  0  0  0
   -6.4320   -7.9441    0.0000 C   0  0  0  0  0  0  0  0  0  0  0  0
   -7.8586   -8.4076    0.0000 C   0  0  0  0  0  0  0  0  0  0  0  0
   -7.7801   -9.9055    0.0000 C   0  0  0  0  0  0  0  0  0  0  0  0
   -9.2780   -9.9841    0.0000 C   0  0  0  0  0  0  0  0  0  0  0  0
  -10.7760  -10.0626    0.0000 C   0  0  0  0  0  0  0  0  0  0  0  0
  -12.2739  -10.1411    0.0000 C   0  0  0  0  0  0  0  0  0  0  0  0
   -9.3566   -8.4861    0.0000 C   0  0  0  0  0  0  0  0  0  0  0  0
   -8.6756   -7.1496    0.0000 C   0  0  0  0  0  0  0  0  0  0  0  0
   -7.5785   -6.1266    0.0000 C   0  0  0  0  0  0  0  0  0  0  0  0
   -6.4815   -5.1036    0.0000 C   0  0  0  0  0  0  0  0  0  0  0  0
   -9.8735   -6.2469    0.0000 C   0  0  0  0  0  0  0  0  0  0  0  0
  -10.7762   -7.4448    0.0000 C   0  0  0  0  0  0  0  0  0  0  0  0
  -10.7762   -7.4448    0.0000 C   0  0  0  0  0  0  0  0  0  0  0  0
  -11.9742   -6.5421    0.0000 C   0  0  0  0  0  0  0  0  0  0  0  0
  -12.5603   -5.1613    0.0000 C   0  0  0  0  0  0  0  0  0  0  0  0
  -11.0715   -5.3442    0.0000 C   0  0  0  0  0  0  0  0  0  0  0  0
   -3.8234   -6.5571    0.0000 C   0  0  0  0  0  0  0  0  0  0  0  0
   -2.7087   -7.5608    0.0000 C   0  0  0  0  0  0  0  0  0  0  0  0
   -1.5940   -8.5645    0.0000 C   0  0  0  0  0  0  0  0  0  0  0  0
   -1.7050   -6.4460    0.0000 C   0  0  0  0  0  0  0  0  0  0  0  0
    0.3943   -1.2135    0.0000 C   0  0  0  0  0  0  0  0  0  0  0  0
    1.6933   -1.9635    0.0000 C   0  0  0  0  0  0  0  0  0  0  0  0
    2.9924   -2.7135    0.0000 N   0  0  0  0  0  0  0  0  0  0  0  0
    5.7348    4.0148    0.0000 H   0  0  0  0  0  0  0  0  0  0  0  0
    3.6164    4.1258    0.0000 H   0  0  0  0  0  0  0  0  0  0  0  0
    5.6238    1.8964    0.0000 H   0  0  0  0  0  0  0  0  0  0  0  0
    2.5017    3.1221    0.0000 H   0  0  0  0  0  0  0  0  0  0  0  0
    4.5091    0.8927    0.0000 H   0  0  0  0  0  0  0  0  0  0  0  0
    1.5304    2.2324    0.0000 H   0  0  0  0  0  0  0  0  0  0  0  0
    3.3944   -0.1110    0.0000 H   0  0  0  0  0  0  0  0  0  0  0  0
    2.5047   -0.8603    0.0000 H   0  0  0  0  0  0  0  0  0  0  0  0
   -0.2158    2.5838    0.0000 H   0  0  0  0  0  0  0  0  0  0  0  0
    1.5922    2.1163    0.0000 H   0  0  0  0  0  0  0  0  0  0  0  0
   -2.5241    0.5932    0.0000 H   0  0  0  0  0  0  0  0  0  0  0  0
   -1.3442    2.2172    0.0000 H   0  0  0  0  0  0  0  0  0  0  0  0
   -2.4938   -0.4125    0.0000 H   0  0  0  0  0  0  0  0  0  0  0  0
    0.0741   -2.7056    0.0000 H   0  0  0  0  0  0  0  0  0  0  0  0
   -3.1551   -3.7369    0.0000 H   0  0  0  0  0  0  0  0  0  0  0  0
   -0.1888   -3.9963    0.0000 H   0  0  0  0  0  0  0  0  0  0  0  0
   -0.4736   -5.2824    0.0000 H   0  0  0  0  0  0  0  0  0  0  0  0
   -3.4351   -4.8398    0.0000 H   0  0  0  0  0  0  0  0  0  0  0  0
   -3.1823   -7.8170    0.0000 H   0  0  0  0  0  0  0  0  0  0  0  0
   -1.1650   -7.6226    0.0000 H   0  0  0  0  0  0  0  0  0  0  0  0
   -2.6807   -0.4111    0.0000 H   0  0  0  0  0  0  0  0  0  0  0  0
   -5.7458   -1.2816    0.0000 H   0  0  0  0  0  0  0  0  0  0  0  0
   -4.7670   -3.0118    0.0000 H   0  0  0  0  0  0  0  0  0  0  0  0
   -3.9667   -0.1263    0.0000 H   0  0  0  0  0  0  0  0  0  0  0  0
   -4.6175   -3.2419    0.0000 H   0  0  0  0  0  0  0  0  0  0  0  0
   -1.7751   -4.0302    0.0000 H   0  0  0  0  0  0  0  0  0  0  0  0
   -2.1772   -5.6569    0.0000 H   0  0  0  0  0  0  0  0  0  0  0  0
   -4.2354   -7.7253    0.0000 H   0  0  0  0  0  0  0  0  0  0  0  0
   -5.1888   -6.7206    0.0000 H   0  0  0  0  0  0  0  0  0  0  0  0
   -2.2798   -6.6189    0.0000 H   0  0  0  0  0  0  0  0  0  0  0  0
   -4.8499   -6.0270    0.0000 H   0  0  0  0  0  0  0  0  0  0  0  0
   -7.7878   -3.7277    0.0000 H   0  0  0  0  0  0  0  0  0  0  0  0
   -6.8579   -5.6343    0.0000 H   0  0  0  0  0  0  0  0  0  0  0  0
   -6.0577   -2.7488    0.0000 H   0  0  0  0  0  0  0  0  0  0  0  0
   -8.1552   -5.5293    0.0000 H   0  0  0  0  0  0  0  0  0  0  0  0
   -7.1268   -7.3847    0.0000 H   0  0  0  0  0  0  0  0  0  0  0  0
   -6.6609   -4.4437    0.0000 H   0  0  0  0  0  0  0  0  0  0  0  0
   -4.4679   -8.8809    0.0000 H   0  0  0  0  0  0  0  0  0  0  0  0
   -5.7981   -9.3035    0.0000 H   0  0  0  0  0  0  0  0  0  0  0  0
   -7.0660   -6.5846    0.0000 H   0  0  0  0  0  0  0  0  0  0  0  0
   -7.7016  -11.4035    0.0000 H   0  0  0  0  0  0  0  0  0  0  0  0
   -6.2838  -10.0102    0.0000 H   0  0  0  0  0  0  0  0  0  0  0  0
   -9.1995  -11.4820    0.0000 H   0  0  0  0  0  0  0  0  0  0  0  0
  -10.6975  -11.5605    0.0000 H   0  0  0  0  0  0  0  0  0  0  0  0
  -11.3862   -8.6923    0.0000 H   0  0  0  0  0  0  0  0  0  0  0  0
  -13.7719  -10.2196    0.0000 H   0  0  0  0  0  0  0  0  0  0  0  0
  -12.1954  -11.6390    0.0000 H   0  0  0  0  0  0  0  0  0  0  0  0
  -12.7126   -8.7066    0.0000 H   0  0  0  0  0  0  0  0  0  0  0  0
  -10.8381   -8.7209    0.0000 H   0  0  0  0  0  0  0  0  0  0  0  0
   -8.4602   -4.9131    0.0000 H   0  0  0  0  0  0  0  0  0  0  0  0
   -8.7276   -5.1624    0.0000 H   0  0  0  0  0  0  0  0  0  0  0  0
   -5.6646   -3.8456    0.0000 H   0  0  0  0  0  0  0  0  0  0  0  0
   -7.6306   -4.1395    0.0000 H   0  0  0  0  0  0  0  0  0  0  0  0
   -5.4585   -6.2006    0.0000 H   0  0  0  0  0  0  0  0  0  0  0  0
  -11.8183   -8.5238    0.0000 H   0  0  0  0  0  0  0  0  0  0  0  0
  -11.7202   -6.2791    0.0000 H   0  0  0  0  0  0  0  0  0  0  0  0
   -9.6973   -8.4868    0.0000 H   0  0  0  0  0  0  0  0  0  0  0  0
  -12.0484   -8.2396    0.0000 H   0  0  0  0  0  0  0  0  0  0  0  0
   -9.9815   -8.7170    0.0000 H   0  0  0  0  0  0  0  0  0  0  0  0
  -13.1562   -7.4656    0.0000 H   0  0  0  0  0  0  0  0  0  0  0  0
  -14.0218   -5.4988    0.0000 H   0  0  0  0  0  0  0  0  0  0  0  0
  -12.6388   -3.6634    0.0000 H   0  0  0  0  0  0  0  0  0  0  0  0
  -10.5096   -3.9534    0.0000 H   0  0  0  0  0  0  0  0  0  0  0  0
   -3.0285   -5.2850    0.0000 H   0  0  0  0  0  0  0  0  0  0  0  0
   -3.5690   -8.7895    0.0000 H   0  0  0  0  0  0  0  0  0  0  0  0
   -0.4793   -9.5681    0.0000 H   0  0  0  0  0  0  0  0  0  0  0  0
   -0.3504   -7.7257    0.0000 H   0  0  0  0  0  0  0  0  0  0  0  0
   -2.5977   -9.6792    0.0000 H   0  0  0  0  0  0  0  0  0  0  0  0
   -0.5729   -5.4620    0.0000 H   0  0  0  0  0  0  0  0  0  0  0  0
   -0.3806   -7.1502    0.0000 H   0  0  0  0  0  0  0  0  0  0  0  0
   -2.9338   -5.5857    0.0000 H   0  0  0  0  0  0  0  0  0  0  0  0
   -0.0442   -2.6480    0.0000 H   0  0  0  0  0  0  0  0  0  0  0  0
    0.9433   -3.2626    0.0000 H   0  0  0  0  0  0  0  0  0  0  0  0
    2.5961   -0.7656    0.0000 H   0  0  0  0  0  0  0  0  0  0  0  0
    2.9924   -4.2135    0.0000 H   0  0  0  0  0  0  0  0  0  0  0  0
    4.2914   -1.9635    0.0000 H   0  0  0  0  0  0  0  0  0  0  0  0
  1  2  1  0
  2  3  1  0
  3  4  1  0
  4  5  1  0
  5  6  1  0
  6  7  1  0
  7  8  1  0
  8  9  1  0
  9 10  1  0
 10 11  1  0
  8 12  1  0
 12 13  1  0
 12 14  1  0
 14 15  1  0
 15 16  1  0
 15 17  1  0
 17 18  1  0
 17 19  1  0
 19 20  1  0
 19 21  1  0
 21 22  1  0
 22 23  1  0
 23 24  1  0
 24 25  1  0
 25 26  1  0
 26 27  1  0
 25 28  1  0
 28 29  1  0
 29 30  1  0
 30 31  1  0
 29 32  1  0
 32 33  1  0
 32 34  1  0
 34 35  1  0
 35 36  1  0
 36 37  1  0
 21 38  1  0
 38 39  1  0
 39 40  1  0
 39 41  1  0
  7 42  1  0
 42 43  1  0
 43 44  1  0
 42  4  1  0
 38 19  1  0
 28 23  1  0
 37 32  1  0
 29 23  1  0
 37 35  1  0
  1 45  1  0
  1 46  1  0
  1 47  1  0
  2 48  1  0
  2 49  1  0
  3 50  1  0
  3 51  1  0
  4 52  1  0
  5 53  1  0
  5 54  1  0
  6 55  1  0
  6 56  1  0
  7 57  1  0
  8 58  1  0
  9 59  1  0
  9 60  1  0
 10 61  1  0
 10 62  1  0
 11 63  1  0
 11 64  1  0
 12 65  1  0
 13 66  1  0
 13 67  1  0
 13 68  1  0
 14 69  1  0
 14 70  1  0
 15 71  1  0
 16 72  1  0
 16 73  1  0
 16 74  1  0
 17 75  1  0
 18 76  1  0
 18 77  1  0
 18 78  1  0
 20 79  1  0
 20 80  1  0
 20 81  1  0
 21 82  1  0
 22 83  1  0
 22 84  1  0
 24 85  1  0
 24 86  1  0
 25 87  1  0
 26 88  1  0
 26 89  1  0
 27 90  1  0
 27 91  1  0
 27 92  1  0
 28 93  1  0
 30 94  1  0
 30 95  1  0
 31 96  1  0
 31 97  1  0
 31 98  1  0
 33 99  1  0
 33100  1  0
 33101  1  0
 34102  1  0
 34103  1  0
 35104  1  0
 36105  1  0
 36106  1  0
 37107  1  0
 38108  1  0
 39109  1  0
 40110  1  0
 40111  1  0
 40112  1  0
 41113  1  0
 41114  1  0
 41115  1  0
 42116  1  0
 43117  1  0
 43118  1  0
 44119  1  0
 44120  1  0
M  END
$$$$
