
     RDKit          2D

 48 55  0  0  0  0  0  0  0  0999 V2000
   -1.6450  -12.5429    0.0000 C   0  0  0  0  0  0  0  0  0  0  0  0
   -2.6290  -11.4108    0.0000 C   0  0  0  0  0  0  0  0  0  0  0  0
   -2.1407   -9.9925    0.0000 C   0  0  0  0  0  0  0  0  0  0  0  0
   -1.6523   -8.5743    0.0000 C   0  0  0  0  0  0  0  0  0  0  0  0
   -1.1640   -7.1560    0.0000 C   0  0  0  0  0  0  0  0  0  0  0  0
    0.3175   -7.3906    0.0000 C   0  0  0  0  0  0  0  0  0  0  0  0
   -0.2200   -5.9903    0.0000 C   0  0  0  0  0  0  0  0  0  0  0  0
   -1.2041   -4.8582    0.0000 C   0  0  0  0  0  0  0  0  0  0  0  0
    0.0817   -4.0856    0.0000 C   0  0  0  0  0  0  0  0  0  0  0  0
    1.3674   -3.3131    0.0000 O   0  0  0  0  0  0  0  0  0  0  0  0
   -2.1481   -6.0239    0.0000 C   0  0  0  0  0  0  0  0  0  0  0  0
   -3.6296   -5.7893    0.0000 C   0  0  0  0  0  0  0  0  0  0  0  0
   -5.1111   -5.5546    0.0000 C   0  0  0  0  0  0  0  0  0  0  0  0
   -4.1672   -4.3889    0.0000 C   0  0  0  0  0  0  0  0  0  0  0  0
   -3.2232   -3.2232    0.0000 N   0  0  0  0  0  0  0  0  0  0  0  0
   -1.7416   -3.4578    0.0000 C   0  0  0  0  0  0  0  0  0  0  0  0
   -1.0607   -2.1213    0.0000 C   0  0  0  0  0  0  0  0  0  0  0  0
   -0.0000   -1.0607    0.0000 C   0  0  0  0  0  0  0  0  0  0  0  0
    1.0607    0.0000    0.0000 O   0  0  0  0  0  0  0  0  0  0  0  0
    0.0000    1.0607    0.0000 C   0  0  0  0  0  0  0  0  0  0  0  0
   -3.4578   -1.7416    0.0000 C   0  0  0  0  0  0  0  0  0  0  0  0
   -2.1213   -1.0607    0.0000 C   0  0  0  0  0  0  0  0  0  0  0  0
   -1.0607    0.0000    0.0000 C   0  0  0  0  0  0  0  0  0  0  0  0
   -2.1213    1.0607    0.0000 F   0  0  0  0  0  0  0  0  0  0  0  0
   -2.1333  -13.9612    0.0000 H   0  0  0  0  0  0  0  0  0  0  0  0
   -0.1725  -12.2567    0.0000 H   0  0  0  0  0  0  0  0  0  0  0  0
   -4.1015  -11.6970    0.0000 H   0  0  0  0  0  0  0  0  0  0  0  0
   -0.7224  -10.4809    0.0000 H   0  0  0  0  0  0  0  0  0  0  0  0
   -3.5590   -9.5042    0.0000 H   0  0  0  0  0  0  0  0  0  0  0  0
   -3.1196   -8.2624    0.0000 H   0  0  0  0  0  0  0  0  0  0  0  0
   -0.4390   -9.1661    0.0000 H   0  0  0  0  0  0  0  0  0  0  0  0
   -2.6129   -6.7678    0.0000 H   0  0  0  0  0  0  0  0  0  0  0  0
    1.7900   -7.1044    0.0000 H   0  0  0  0  0  0  0  0  0  0  0  0
    0.5055   -8.7275    0.0000 H   0  0  0  0  0  0  0  0  0  0  0  0
    0.5082   -5.6660    0.0000 H   0  0  0  0  0  0  0  0  0  0  0  0
    0.5725   -4.7138    0.0000 H   0  0  0  0  0  0  0  0  0  0  0  0
    0.0033   -2.5877    0.0000 H   0  0  0  0  0  0  0  0  0  0  0  0
    2.6793   -4.0403    0.0000 H   0  0  0  0  0  0  0  0  0  0  0  0
   -2.8057   -7.3721    0.0000 H   0  0  0  0  0  0  0  0  0  0  0  0
   -1.0511   -7.0470    0.0000 H   0  0  0  0  0  0  0  0  0  0  0  0
   -3.8643   -7.2708    0.0000 H   0  0  0  0  0  0  0  0  0  0  0  0
   -5.5995   -6.9729    0.0000 H   0  0  0  0  0  0  0  0  0  0  0  0
   -6.4231   -4.8274    0.0000 H   0  0  0  0  0  0  0  0  0  0  0  0
   -2.8077   -5.0228    0.0000 H   0  0  0  0  0  0  0  0  0  0  0  0
   -0.2692   -3.1715    0.0000 H   0  0  0  0  0  0  0  0  0  0  0  0
    0.3301   -2.6832    0.0000 H   0  0  0  0  0  0  0  0  0  0  0  0
    1.0607   -2.1213    0.0000 H   0  0  0  0  0  0  0  0  0  0  0  0
   -4.7943   -1.0607    0.0000 H   0  0  0  0  0  0  0  0  0  0  0  0
  1  2  2  3
  2  3  1  0
  3  4  1  0
  4  5  1  0
  5  6  1  0
  6  7  1  0
  7  8  1  0
  8  9  1  6
  9 10  1  0
  8 11  1  0
 11 12  1  0
 12 13  1  0
 13 14  1  0
 14 15  1  0
 15 16  1  0
 16 17  1  0
 17 18  1  0
 18 19  1  0
 19 20  1  0
 20 21  1  0
 21 22  1  0
 22 23  1  0
 23 24  1  6
  7  5  1  0
 16  8  1  0
 22 17  1  0
 14 12  1  0
 21 15  1  0
 23 18  1  0
 22 20  1  1
 23 20  1  0
  1 25  1  0
  1 26  1  0
  2 27  1  0
  3 28  1  0
  3 29  1  0
  4 30  1  0
  4 31  1  0
  5 32  1  6
  6 33  1  0
  6 34  1  0
  7 35  1  1
  9 36  1  0
  9 37  1  0
 10 38  1  0
 11 39  1  0
 11 40  1  0
 12 41  1  1
 13 42  1  0
 13 43  1  0
 14 44  1  1
 16 45  1  6
 17 46  1  6
 18 47  1  6
 21 48  1  6
M  END
$$$$
