
     RDKit          2D

 30 32  0  0  0  0  0  0  0  0999 V2000
   -1.9156   -4.3957    0.0000 C   0  0  0  0  0  0  0  0  0  0  0  0
   -1.5274   -2.9468    0.0000 C   0  0  0  0  0  0  0  0  0  0  0  0
   -0.1270   -3.4844    0.0000 C   0  0  0  0  0  0  0  0  0  0  0  0
    0.8170   -2.3187    0.0000 C   0  0  0  0  0  0  0  0  0  0  0  0
    1.9827   -1.3747    0.0000 C   0  0  0  0  0  0  0  0  0  0  0  0
   -0.0000   -1.0607    0.0000 S   0  0  0  0  0  6  0  0  0  0  0  0
    1.4724   -0.7744    0.0000 C   0  0  0  0  0  0  0  0  0  0  0  0
    1.0607    0.0000    0.0000 O   0  0  0  0  0  0  0  0  0  0  0  0
    0.0000    1.0607    0.0000 C   0  0  0  0  0  0  0  0  0  0  0  0
   -1.0607    0.0000    0.0000 C   0  0  0  0  0  0  0  0  0  0  0  0
   -2.3597    0.7500    0.0000 O   0  0  0  0  0  0  0  0  0  0  0  0
   -1.4489   -1.4489    0.0000 C   0  0  0  0  0  0  0  0  0  0  0  0
   -2.3038   -5.8446    0.0000 H   0  0  0  0  0  0  0  0  0  0  0  0
   -1.1765   -4.6944    0.0000 H   0  0  0  0  0  0  0  0  0  0  0  0
   -3.3645   -4.0075    0.0000 H   0  0  0  0  0  0  0  0  0  0  0  0
   -3.0089   -2.7122    0.0000 H   0  0  0  0  0  0  0  0  0  0  0  0
    1.1310   -4.3013    0.0000 H   0  0  0  0  0  0  0  0  0  0  0  0
   -0.3996   -4.2335    0.0000 H   0  0  0  0  0  0  0  0  0  0  0  0
    1.8776   -3.3793    0.0000 H   0  0  0  0  0  0  0  0  0  0  0  0
    3.2548   -0.5798    0.0000 H   0  0  0  0  0  0  0  0  0  0  0  0
    2.9267   -2.5404    0.0000 H   0  0  0  0  0  0  0  0  0  0  0  0
    1.6966    0.0978    0.0000 H   0  0  0  0  0  0  0  0  0  0  0  0
    1.4419   -1.4741    0.0000 H   0  0  0  0  0  0  0  0  0  0  0  0
    2.8990   -0.3109    0.0000 H   0  0  0  0  0  0  0  0  0  0  0  0
    1.5510    0.7235    0.0000 H   0  0  0  0  0  0  0  0  0  0  0  0
    1.9360   -2.2010    0.0000 H   0  0  0  0  0  0  0  0  0  0  0  0
   -1.0607    2.1213    0.0000 H   0  0  0  0  0  0  0  0  0  0  0  0
    1.0607    2.1213    0.0000 H   0  0  0  0  0  0  0  0  0  0  0  0
   -2.3597    2.2500    0.0000 H   0  0  0  0  0  0  0  0  0  0  0  0
   -2.9304   -1.2142    0.0000 H   0  0  0  0  0  0  0  0  0  0  0  0
  1  2  1  0
  2  3  1  0
  3  4  1  0
  4  5  1  0
  4  6  1  0
  6  7  1  0
  6  8  1  0
  8  9  1  0
  9 10  1  0
 10 11  1  0
 10 12  1  0
 12  2  1  0
 10  6  1  0
 12  6  1  0
  1 13  1  0
  1 14  1  0
  1 15  1  0
  2 16  1  0
  3 17  1  0
  3 18  1  0
  4 19  1  0
  5 20  1  0
  5 21  1  0
  5 22  1  0
  6 23  1  0
  7 24  1  0
  7 25  1  0
  7 26  1  0
  9 27  1  0
  9 28  1  0
 11 29  1  0
 12 30  1  0
M  END
$$$$
