
     RDKit          2D

 31 32  0  0  0  0  0  0  0  0999 V2000
   -4.8646   -0.4895    0.0000 C   0  0  0  0  0  0  0  0  0  0  0  0
   -3.3874   -0.7500    0.0000 C   0  0  0  0  0  0  0  0  0  0  0  0
   -1.9102   -1.0105    0.0000 C   0  0  0  0  0  0  0  0  0  0  0  0
   -1.3972    0.3991    0.0000 N   0  0  0  0  0  0  0  0  0  0  0  0
   -0.4330   -0.7500    0.0000 C   0  0  0  0  0  0  0  0  0  0  0  0
    0.0800   -2.1595    0.0000 N   0  0  0  0  0  0  0  0  0  0  0  0
   -0.8842   -3.3086    0.0000 C   0  0  0  0  0  0  0  0  0  0  0  0
   -1.8483   -4.4577    0.0000 O   0  0  0  0  0  0  0  0  0  0  0  0
    1.5572   -2.4200    0.0000 C   0  0  0  0  0  0  0  0  0  0  0  0
    3.0344   -2.6805    0.0000 N   0  0  0  0  0  0  0  0  0  0  0  0
    3.5475   -4.0900    0.0000 C   0  0  0  0  0  0  0  0  0  0  0  0
    4.5117   -5.2391    0.0000 C   0  0  0  0  0  0  0  0  0  0  0  0
    5.0247   -3.8296    0.0000 N   0  0  0  0  0  0  0  0  0  0  0  0
   -6.3419   -0.2291    0.0000 H   0  0  0  0  0  0  0  0  0  0  0  0
   -4.6042    0.9877    0.0000 H   0  0  0  0  0  0  0  0  0  0  0  0
   -5.1251   -1.9667    0.0000 H   0  0  0  0  0  0  0  0  0  0  0  0
   -3.1270    0.7272    0.0000 H   0  0  0  0  0  0  0  0  0  0  0  0
   -3.6479   -2.2272    0.0000 H   0  0  0  0  0  0  0  0  0  0  0  0
   -2.0182   -1.8896    0.0000 H   0  0  0  0  0  0  0  0  0  0  0  0
   -1.6577    1.8763    0.0000 H   0  0  0  0  0  0  0  0  0  0  0  0
    0.8660    0.0000    0.0000 H   0  0  0  0  0  0  0  0  0  0  0  0
   -1.6270   -2.8262    0.0000 H   0  0  0  0  0  0  0  0  0  0  0  0
    0.2649   -4.2728    0.0000 H   0  0  0  0  0  0  0  0  0  0  0  0
   -1.3353   -5.8672    0.0000 H   0  0  0  0  0  0  0  0  0  0  0  0
    1.2968   -3.8972    0.0000 H   0  0  0  0  0  0  0  0  0  0  0  0
    1.8177   -0.9428    0.0000 H   0  0  0  0  0  0  0  0  0  0  0  0
    3.9986   -1.5314    0.0000 H   0  0  0  0  0  0  0  0  0  0  0  0
    2.2484   -4.8400    0.0000 H   0  0  0  0  0  0  0  0  0  0  0  0
    3.5475   -6.3882    0.0000 H   0  0  0  0  0  0  0  0  0  0  0  0
    5.8107   -5.9891    0.0000 H   0  0  0  0  0  0  0  0  0  0  0  0
    6.1737   -2.8654    0.0000 H   0  0  0  0  0  0  0  0  0  0  0  0
  1  2  1  0
  2  3  1  0
  3  4  1  0
  4  5  1  0
  5  6  1  0
  6  7  1  0
  7  8  1  0
  6  9  1  0
  9 10  1  0
 10 11  1  0
 11 12  1  0
 12 13  1  0
  5  3  1  0
 13 11  1  0
  1 14  1  0
  1 15  1  0
  1 16  1  0
  2 17  1  0
  2 18  1  0
  3 19  1  1
  4 20  1  0
  5 21  1  1
  7 22  1  0
  7 23  1  0
  8 24  1  0
  9 25  1  0
  9 26  1  0
 10 27  1  0
 11 28  1  1
 12 29  1  0
 12 30  1  0
 13 31  1  0
M  END
$$$$
