
     RDKit          2D

 49 52  0  0  0  0  0  0  0  0999 V2000
   -0.1268   -7.6195    0.0000 C   0  0  0  0  0  0  0  0  0  0  0  0
   -0.2575   -6.1252    0.0000 C   0  0  0  0  0  0  0  0  0  0  0  0
   -0.3882   -4.6309    0.0000 C   0  0  0  0  0  0  0  0  0  0  0  0
    1.0607   -4.2426    0.0000 C   0  0  0  0  0  0  0  0  0  0  0  0
    2.1213   -3.1820    0.0000 C   0  0  0  0  0  0  0  0  0  0  0  0
    1.0607   -2.1213    0.0000 C   0  0  0  0  0  0  0  0  0  0  0  0
   -0.0000   -1.0607    0.0000 C   0  0  0  0  0  0  0  0  0  0  0  0
    1.0607    0.0000    0.0000 C   0  0  0  0  0  0  0  0  0  0  0  0
    0.0000    1.0607    0.0000 C   0  0  0  0  0  0  0  0  0  0  0  0
   -0.6810    2.3972    0.0000 C   0  0  0  0  0  0  0  0  0  0  0  0
    0.7194    2.9347    0.0000 C   0  0  0  0  0  0  0  0  0  0  0  0
    0.9540    4.4163    0.0000 C   0  0  0  0  0  0  0  0  0  0  0  0
    2.3544    4.9538    0.0000 C   0  0  0  0  0  0  0  0  0  0  0  0
    3.7548    5.4914    0.0000 C   0  0  0  0  0  0  0  0  0  0  0  0
    1.8169    6.3542    0.0000 C   0  0  0  0  0  0  0  0  0  0  0  0
   -2.1625    2.1625    0.0000 C   0  0  0  0  0  0  0  0  0  0  0  0
   -2.3972    0.6810    0.0000 C   0  0  0  0  0  0  0  0  0  0  0  0
   -1.0607    0.0000    0.0000 C   0  0  0  0  0  0  0  0  0  0  0  0
   -0.0000   -3.1820    0.0000 C   0  0  0  0  0  0  0  0  0  0  0  0
    0.0040   -9.1137    0.0000 H   0  0  0  0  0  0  0  0  0  0  0  0
   -1.6211   -7.7502    0.0000 H   0  0  0  0  0  0  0  0  0  0  0  0
    1.3675   -7.4887    0.0000 H   0  0  0  0  0  0  0  0  0  0  0  0
    1.2416   -6.1776    0.0000 H   0  0  0  0  0  0  0  0  0  0  0  0
   -1.7518   -6.2559    0.0000 H   0  0  0  0  0  0  0  0  0  0  0  0
   -1.8825   -4.5001    0.0000 H   0  0  0  0  0  0  0  0  0  0  0  0
    1.9634   -5.4406    0.0000 H   0  0  0  0  0  0  0  0  0  0  0  0
    3.1820   -2.1213    0.0000 H   0  0  0  0  0  0  0  0  0  0  0  0
    3.1820   -4.2426    0.0000 H   0  0  0  0  0  0  0  0  0  0  0  0
    1.7586   -1.5760    0.0000 H   0  0  0  0  0  0  0  0  0  0  0  0
   -0.9575   -1.8087    0.0000 H   0  0  0  0  0  0  0  0  0  0  0  0
    2.1213    1.0607    0.0000 H   0  0  0  0  0  0  0  0  0  0  0  0
    1.7586   -0.5453    0.0000 H   0  0  0  0  0  0  0  0  0  0  0  0
    1.0627    1.6497    0.0000 H   0  0  0  0  0  0  0  0  0  0  0  0
   -1.0692    3.8461    0.0000 H   0  0  0  0  0  0  0  0  0  0  0  0
    1.7498    2.2909    0.0000 H   0  0  0  0  0  0  0  0  0  0  0  0
   -0.3181    5.2111    0.0000 H   0  0  0  0  0  0  0  0  0  0  0  0
    2.8920    3.5534    0.0000 H   0  0  0  0  0  0  0  0  0  0  0  0
    5.1551    6.0289    0.0000 H   0  0  0  0  0  0  0  0  0  0  0  0
    4.2923    4.0910    0.0000 H   0  0  0  0  0  0  0  0  0  0  0  0
    3.5405    6.3508    0.0000 H   0  0  0  0  0  0  0  0  0  0  0  0
    1.2793    7.7545    0.0000 H   0  0  0  0  0  0  0  0  0  0  0  0
    2.5989    6.7700    0.0000 H   0  0  0  0  0  0  0  0  0  0  0  0
    0.3614    5.9913    0.0000 H   0  0  0  0  0  0  0  0  0  0  0  0
   -2.2410    3.6605    0.0000 H   0  0  0  0  0  0  0  0  0  0  0  0
   -3.6605    2.2410    0.0000 H   0  0  0  0  0  0  0  0  0  0  0  0
   -3.8461    1.0692    0.0000 H   0  0  0  0  0  0  0  0  0  0  0  0
   -2.9347   -0.7194    0.0000 H   0  0  0  0  0  0  0  0  0  0  0  0
   -1.9423   -1.2135    0.0000 H   0  0  0  0  0  0  0  0  0  0  0  0
   -1.1184   -2.7073    0.0000 H   0  0  0  0  0  0  0  0  0  0  0  0
  1  2  1  0
  2  3  1  0
  3  4  1  0
  4  5  1  0
  5  6  1  0
  6  7  1  0
  7  8  1  0
  8  9  1  0
  9 10  1  0
 10 11  1  0
 11 12  2  3
 12 13  1  0
 13 14  1  0
 13 15  1  0
 10 16  1  0
 16 17  1  0
 17 18  1  0
  6 19  1  0
 19  3  1  0
 19  4  1  0
 18  7  1  0
 18  9  1  0
  1 20  1  0
  1 21  1  0
  1 22  1  0
  2 23  1  0
  2 24  1  0
  3 25  1  1
  4 26  1  6
  5 27  1  0
  5 28  1  0
  6 29  1  1
  7 30  1  1
  8 31  1  0
  8 32  1  0
  9 33  1  6
 10 34  1  6
 11 35  1  0
 12 36  1  0
 13 37  1  0
 14 38  1  0
 14 39  1  0
 14 40  1  0
 15 41  1  0
 15 42  1  0
 15 43  1  0
 16 44  1  0
 16 45  1  0
 17 46  1  0
 17 47  1  0
 18 48  1  1
 19 49  1  6
M  END
$$$$
