
     RDKit          2D

 45 48  0  0  0  0  0  0  0  0999 V2000
   -6.8799   -4.6351    0.0000 F   0  0  0  0  0  0  0  0  0  0  0  0
   -5.7651   -3.6314    0.0000 C   0  0  0  0  0  0  0  0  0  0  0  0
   -4.6504   -2.6277    0.0000 C   0  0  0  0  0  0  0  0  0  0  0  0
   -4.3386   -1.1605    0.0000 C   0  0  0  0  0  0  0  0  0  0  0  0
   -3.2238   -0.1568    0.0000 C   0  0  0  0  0  0  0  0  0  0  0  0
   -1.7321    0.0000    0.0000 C   0  0  0  0  0  0  0  0  0  0  0  0
   -0.4330    0.7500    0.0000 C   0  0  0  0  0  0  0  0  0  0  0  0
    0.8660    0.0000    0.0000 C   0  0  0  0  0  0  0  0  0  0  0  0
   -0.4330   -0.7500    0.0000 C   0  0  0  0  0  0  0  0  0  0  0  0
    0.1771   -2.1203    0.0000 N   0  0  0  0  0  0  0  0  0  0  0  0
   -0.1348   -3.5875    0.0000 C   0  0  0  0  0  0  0  0  0  0  0  0
   -1.2495   -4.5912    0.0000 C   0  0  0  0  0  0  0  0  0  0  0  0
    0.0495   -5.3412    0.0000 C   0  0  0  0  0  0  0  0  0  0  0  0
    0.0495   -6.8412    0.0000 C   0  0  0  0  0  0  0  0  0  0  0  0
    1.3486   -7.5912    0.0000 C   0  0  0  0  0  0  0  0  0  0  0  0
    2.6476   -8.3412    0.0000 C   0  0  0  0  0  0  0  0  0  0  0  0
    3.6118   -9.4903    0.0000 C   0  0  0  0  0  0  0  0  0  0  0  0
    2.1346   -9.7508    0.0000 C   0  0  0  0  0  0  0  0  0  0  0  0
   -2.7413   -4.7480    0.0000 S   0  0  0  0  0  0  0  0  0  0  0  0
   -4.0403   -3.9980    0.0000 N   0  0  0  0  0  0  0  0  0  0  0  0
   -6.6685   -2.6282    0.0000 H   0  0  0  0  0  0  0  0  0  0  0  0
   -4.9048   -4.8602    0.0000 H   0  0  0  0  0  0  0  0  0  0  0  0
   -5.8931   -2.1003    0.0000 H   0  0  0  0  0  0  0  0  0  0  0  0
   -5.8383   -1.1343    0.0000 H   0  0  0  0  0  0  0  0  0  0  0  0
   -5.1111    0.1252    0.0000 H   0  0  0  0  0  0  0  0  0  0  0  0
   -4.4218    0.7460    0.0000 H   0  0  0  0  0  0  0  0  0  0  0  0
   -3.0931    1.3375    0.0000 H   0  0  0  0  0  0  0  0  0  0  0  0
   -2.0182    1.4724    0.0000 H   0  0  0  0  0  0  0  0  0  0  0  0
   -0.4330    2.2500    0.0000 H   0  0  0  0  0  0  0  0  0  0  0  0
    1.8302    1.1491    0.0000 H   0  0  0  0  0  0  0  0  0  0  0  0
    1.9631   -1.0230    0.0000 H   0  0  0  0  0  0  0  0  0  0  0  0
    1.6769   -2.1465    0.0000 H   0  0  0  0  0  0  0  0  0  0  0  0
    1.3570   -3.4307    0.0000 H   0  0  0  0  0  0  0  0  0  0  0  0
    0.3560   -4.2157    0.0000 H   0  0  0  0  0  0  0  0  0  0  0  0
   -1.5614   -6.0585    0.0000 H   0  0  0  0  0  0  0  0  0  0  0  0
    0.7399   -4.9427    0.0000 H   0  0  0  0  0  0  0  0  0  0  0  0
   -1.2495   -7.5912    0.0000 H   0  0  0  0  0  0  0  0  0  0  0  0
    0.4458   -8.7892    0.0000 H   0  0  0  0  0  0  0  0  0  0  0  0
    2.0986   -6.2922    0.0000 H   0  0  0  0  0  0  0  0  0  0  0  0
    3.6118   -7.1922    0.0000 H   0  0  0  0  0  0  0  0  0  0  0  0
    4.9108   -8.7403    0.0000 H   0  0  0  0  0  0  0  0  0  0  0  0
    4.1248  -10.8998    0.0000 H   0  0  0  0  0  0  0  0  0  0  0  0
    2.1346  -11.2508    0.0000 H   0  0  0  0  0  0  0  0  0  0  0  0
    0.6366   -9.6723    0.0000 H   0  0  0  0  0  0  0  0  0  0  0  0
   -5.0244   -5.1301    0.0000 H   0  0  0  0  0  0  0  0  0  0  0  0
  1  2  1  0
  2  3  1  0
  3  4  1  0
  4  5  1  0
  5  6  1  0
  6  7  1  0
  7  8  1  0
  8  9  1  0
  9 10  1  6
 10 11  1  0
 11 12  1  0
 12 13  1  0
 13 14  2  3
 14 15  1  0
 15 16  1  0
 16 17  1  0
 17 18  1  0
 12 19  1  0
 19 20  1  0
 20  3  1  0
  9  6  1  0
 18 16  1  0
  9  7  1  0
  2 21  1  0
  2 22  1  0
  3 23  1  1
  4 24  1  0
  4 25  1  0
  5 26  1  0
  5 27  1  0
  6 28  1  1
  7 29  1  6
  8 30  1  0
  8 31  1  0
 10 32  1  0
 11 33  1  0
 11 34  1  0
 12 35  1  6
 13 36  1  0
 14 37  1  0
 15 38  1  0
 15 39  1  0
 16 40  1  0
 17 41  1  0
 17 42  1  0
 18 43  1  0
 18 44  1  0
 20 45  1  0
M  END
$$$$
