
     RDKit          2D

120127  0  0  0  0  0  0  0  0999 V2000
   -8.5626   -1.8476    0.0000 C   0  0  0  0  0  0  0  0  0  0  0  0
   -7.1349   -1.3874    0.0000 C   0  0  0  0  0  0  0  0  0  0  0  0
   -5.7073   -0.9272    0.0000 C   0  0  0  0  0  0  0  0  0  0  0  0
   -4.2796   -0.4670    0.0000 B   0  0  0  0  0  0  0  0  0  0  0  0
   -3.0682   -1.3515    0.0000 C   0  0  0  0  0  0  0  0  0  0  0  0
   -3.0190    0.0000    0.0000 C   0  0  0  0  0  0  0  0  0  0  0  0
   -3.0682    1.3515    0.0000 C   0  0  0  0  0  0  0  0  0  0  0  0
   -4.2409    2.2867    0.0000 C   0  0  0  0  0  0  0  0  0  0  0  0
   -4.2409    3.7867    0.0000 C   0  0  0  0  0  0  0  0  0  0  0  0
   -3.0682    4.7219    0.0000 C   0  0  0  0  0  0  0  0  0  0  0  0
   -4.2409    5.6572    0.0000 C   0  0  0  0  0  0  0  0  0  0  0  0
   -5.4136    6.5924    0.0000 C   0  0  0  0  0  0  0  0  0  0  0  0
   -6.5864    7.5276    0.0000 C   0  0  0  0  0  0  0  0  0  0  0  0
   -7.7591    8.4629    0.0000 C   0  0  0  0  0  0  0  0  0  0  0  0
   -8.9319    9.3981    0.0000 C   0  0  0  0  0  0  0  0  0  0  0  0
   -6.8239    9.6356    0.0000 C   0  0  0  0  0  0  0  0  0  0  0  0
   -1.6058    4.3881    0.0000 C   0  0  0  0  0  0  0  0  0  0  0  0
   -1.6058    5.8881    0.0000 C   0  0  0  0  0  0  0  0  0  0  0  0
   -1.6058    7.3881    0.0000 C   0  0  0  0  0  0  0  0  0  0  0  0
   -1.6058    8.8881    0.0000 C   0  0  0  0  0  0  0  0  0  0  0  0
   -0.1058    7.3881    0.0000 C   0  0  0  0  0  0  0  0  0  0  0  0
    1.3942    7.3881    0.0000 C   0  0  0  0  0  0  0  0  0  0  0  0
    2.8942    7.3881    0.0000 C   0  0  0  0  0  0  0  0  0  0  0  0
    4.3942    7.3881    0.0000 C   0  0  0  0  0  0  0  0  0  0  0  0
    5.8942    7.3881    0.0000 C   0  0  0  0  0  0  0  0  0  0  0  0
    2.8942    5.8881    0.0000 C   0  0  0  0  0  0  0  0  0  0  0  0
    2.8942    4.3881    0.0000 C   0  0  0  0  0  0  0  0  0  0  0  0
    2.8942    2.8881    0.0000 C   0  0  0  0  0  0  0  0  0  0  0  0
    4.3942    4.3881    0.0000 C   0  0  0  0  0  0  0  0  0  0  0  0
    4.6547    2.9109    0.0000 C   0  0  0  0  0  0  0  0  0  0  0  0
    5.6189    1.7619    0.0000 C   0  0  0  0  0  0  0  0  0  0  0  0
    6.7680    2.7260    0.0000 C   0  0  0  0  0  0  0  0  0  0  0  0
    4.8396    5.0242    0.0000 C   0  0  0  0  0  0  0  0  0  0  0  0
    4.9703    6.5185    0.0000 C   0  0  0  0  0  0  0  0  0  0  0  0
    3.6905    4.0600    0.0000 C   0  0  0  0  0  0  0  0  0  0  0  0
    5.8038    3.8751    0.0000 C   0  0  0  0  0  0  0  0  0  0  0  0
   -0.9549    3.0367    0.0000 C   0  0  0  0  0  0  0  0  0  0  0  0
   -1.6058    1.6852    0.0000 C   0  0  0  0  0  0  0  0  0  0  0  0
   -0.4330    0.7500    0.0000 C   0  0  0  0  0  0  0  0  0  0  0  0
   -1.4533   -0.3496    0.0000 C   0  0  0  0  0  0  0  0  0  0  0  0
    0.8660    0.0000    0.0000 C   0  0  0  0  0  0  0  0  0  0  0  0
   -0.4330   -0.7500    0.0000 C   0  0  0  0  0  0  0  0  0  0  0  0
    0.4120   -1.9894    0.0000 C   0  0  0  0  0  0  0  0  0  0  0  0
    1.2569   -3.2287    0.0000 C   0  0  0  0  0  0  0  0  0  0  0  0
   -1.6058   -1.6852    0.0000 C   0  0  0  0  0  0  0  0  0  0  0  0
   -9.9903   -2.3078    0.0000 H   0  0  0  0  0  0  0  0  0  0  0  0
   -9.0228   -0.4199    0.0000 H   0  0  0  0  0  0  0  0  0  0  0  0
   -8.1024   -3.2752    0.0000 H   0  0  0  0  0  0  0  0  0  0  0  0
   -7.5951    0.0403    0.0000 H   0  0  0  0  0  0  0  0  0  0  0  0
   -6.6747   -2.8150    0.0000 H   0  0  0  0  0  0  0  0  0  0  0  0
   -6.1675    0.5005    0.0000 H   0  0  0  0  0  0  0  0  0  0  0  0
   -5.2471   -2.3548    0.0000 H   0  0  0  0  0  0  0  0  0  0  0  0
   -4.0034   -2.5242    0.0000 H   0  0  0  0  0  0  0  0  0  0  0  0
   -3.7387   -0.2175    0.0000 H   0  0  0  0  0  0  0  0  0  0  0  0
   -4.8917    0.9352    0.0000 H   0  0  0  0  0  0  0  0  0  0  0  0
   -2.5869   -0.0693    0.0000 H   0  0  0  0  0  0  0  0  0  0  0  0
   -5.5924    1.6359    0.0000 H   0  0  0  0  0  0  0  0  0  0  0  0
   -5.7033    3.4529    0.0000 H   0  0  0  0  0  0  0  0  0  0  0  0
   -5.0516    5.0487    0.0000 H   0  0  0  0  0  0  0  0  0  0  0  0
   -2.5869    6.1426    0.0000 H   0  0  0  0  0  0  0  0  0  0  0  0
   -3.4556    6.9352    0.0000 H   0  0  0  0  0  0  0  0  0  0  0  0
   -5.3121    4.6072    0.0000 H   0  0  0  0  0  0  0  0  0  0  0  0
   -4.4784    7.7651    0.0000 H   0  0  0  0  0  0  0  0  0  0  0  0
   -6.3489    5.4196    0.0000 H   0  0  0  0  0  0  0  0  0  0  0  0
   -7.5216    6.3549    0.0000 H   0  0  0  0  0  0  0  0  0  0  0  0
   -5.5152    8.5776    0.0000 H   0  0  0  0  0  0  0  0  0  0  0  0
   -8.6944    7.2901    0.0000 H   0  0  0  0  0  0  0  0  0  0  0  0
  -10.1046   10.3333    0.0000 H   0  0  0  0  0  0  0  0  0  0  0  0
   -9.8671    8.2253    0.0000 H   0  0  0  0  0  0  0  0  0  0  0  0
   -8.1466   10.6761    0.0000 H   0  0  0  0  0  0  0  0  0  0  0  0
   -5.8887   10.8084    0.0000 H   0  0  0  0  0  0  0  0  0  0  0  0
   -7.8739   10.7068    0.0000 H   0  0  0  0  0  0  0  0  0  0  0  0
   -5.5459    8.8503    0.0000 H   0  0  0  0  0  0  0  0  0  0  0  0
   -0.1950    4.8977    0.0000 H   0  0  0  0  0  0  0  0  0  0  0  0
   -0.1169    5.7053    0.0000 H   0  0  0  0  0  0  0  0  0  0  0  0
   -3.0946    6.0710    0.0000 H   0  0  0  0  0  0  0  0  0  0  0  0
   -3.0946    7.5710    0.0000 H   0  0  0  0  0  0  0  0  0  0  0  0
   -1.6058   10.3881    0.0000 H   0  0  0  0  0  0  0  0  0  0  0  0
   -0.1169    9.0710    0.0000 H   0  0  0  0  0  0  0  0  0  0  0  0
   -3.1058    8.8881    0.0000 H   0  0  0  0  0  0  0  0  0  0  0  0
    0.0771    8.8770    0.0000 H   0  0  0  0  0  0  0  0  0  0  0  0
    0.0771    5.8993    0.0000 H   0  0  0  0  0  0  0  0  0  0  0  0
    1.3942    8.8881    0.0000 H   0  0  0  0  0  0  0  0  0  0  0  0
    1.2114    5.8993    0.0000 H   0  0  0  0  0  0  0  0  0  0  0  0
    2.8942    8.8881    0.0000 H   0  0  0  0  0  0  0  0  0  0  0  0
    4.3942    8.8881    0.0000 H   0  0  0  0  0  0  0  0  0  0  0  0
    4.3942    5.8881    0.0000 H   0  0  0  0  0  0  0  0  0  0  0  0
    7.3942    7.3881    0.0000 H   0  0  0  0  0  0  0  0  0  0  0  0
    6.0771    5.8993    0.0000 H   0  0  0  0  0  0  0  0  0  0  0  0
    5.8942    8.8881    0.0000 H   0  0  0  0  0  0  0  0  0  0  0  0
    4.3942    5.8881    0.0000 H   0  0  0  0  0  0  0  0  0  0  0  0
    1.4054    5.7053    0.0000 H   0  0  0  0  0  0  0  0  0  0  0  0
    1.3942    4.3881    0.0000 H   0  0  0  0  0  0  0  0  0  0  0  0
    2.8942    1.3881    0.0000 H   0  0  0  0  0  0  0  0  0  0  0  0
    1.3942    2.8881    0.0000 H   0  0  0  0  0  0  0  0  0  0  0  0
    4.3497    2.5252    0.0000 H   0  0  0  0  0  0  0  0  0  0  0  0
    4.2895    5.8845    0.0000 H   0  0  0  0  0  0  0  0  0  0  0  0
    6.5831    0.6128    0.0000 H   0  0  0  0  0  0  0  0  0  0  0  0
    4.4698    0.7977    0.0000 H   0  0  0  0  0  0  0  0  0  0  0  0
    8.2623    2.5953    0.0000 H   0  0  0  0  0  0  0  0  0  0  0  0
    5.1011    8.0128    0.0000 H   0  0  0  0  0  0  0  0  0  0  0  0
    6.4375    6.2066    0.0000 H   0  0  0  0  0  0  0  0  0  0  0  0
    3.4760    6.6492    0.0000 H   0  0  0  0  0  0  0  0  0  0  0  0
    2.8089    2.8464    0.0000 H   0  0  0  0  0  0  0  0  0  0  0  0
    3.0330    5.4082    0.0000 H   0  0  0  0  0  0  0  0  0  0  0  0
    0.3231    3.8220    0.0000 H   0  0  0  0  0  0  0  0  0  0  0  0
    0.2178    2.1015    0.0000 H   0  0  0  0  0  0  0  0  0  0  0  0
   -2.2566    3.0367    0.0000 H   0  0  0  0  0  0  0  0  0  0  0  0
   -2.7093   -1.1696    0.0000 H   0  0  0  0  0  0  0  0  0  0  0  0
   -0.6332   -1.6056    0.0000 H   0  0  0  0  0  0  0  0  0  0  0  0
   -2.6690    0.5290    0.0000 H   0  0  0  0  0  0  0  0  0  0  0  0
    1.8302    1.1491    0.0000 H   0  0  0  0  0  0  0  0  0  0  0  0
    1.9631   -1.0230    0.0000 H   0  0  0  0  0  0  0  0  0  0  0  0
   -0.7151   -2.9791    0.0000 H   0  0  0  0  0  0  0  0  0  0  0  0
    1.7451   -1.3018    0.0000 H   0  0  0  0  0  0  0  0  0  0  0  0
    2.1019   -4.4681    0.0000 H   0  0  0  0  0  0  0  0  0  0  0  0
    2.4963   -2.3837    0.0000 H   0  0  0  0  0  0  0  0  0  0  0  0
    0.0176   -4.0737    0.0000 H   0  0  0  0  0  0  0  0  0  0  0  0
   -0.5558   -2.7564    0.0000 H   0  0  0  0  0  0  0  0  0  0  0  0
   -2.2566   -3.0367    0.0000 H   0  0  0  0  0  0  0  0  0  0  0  0
  1  2  1  0
  2  3  1  0
  3  4  1  0
  4  5  1  0
  5  6  1  0
  6  7  1  0
  7  8  1  0
  8  9  1  0
  9 10  1  0
 10 11  1  0
 11 12  1  0
 12 13  1  0
 13 14  1  0
 14 15  1  0
 14 16  1  0
 10 17  1  0
 17 18  1  0
 18 19  1  0
 19 20  1  0
 19 21  1  0
 21 22  1  0
 22 23  1  0
 23 24  1  0
 24 25  1  0
 23 26  1  0
 26 27  1  0
 27 28  1  0
 27 29  1  0
 29 30  1  0
 30 31  1  0
 31 32  1  0
 32 33  1  0
 33 34  1  0
 33 35  1  0
 33 36  1  0
 17 37  1  0
 37 38  1  0
 38 39  1  0
 39 40  1  0
 39 41  1  0
 41 42  1  0
 42 43  1  0
 43 44  1  0
 42 45  1  0
  8  4  1  0
 36 29  1  0
 42 39  1  0
 45  5  1  0
 38  7  1  0
 35 30  1  0
 36 30  1  0
 36 32  1  0
  1 46  1  0
  1 47  1  0
  1 48  1  0
  2 49  1  0
  2 50  1  0
  3 51  1  0
  3 52  1  0
  5 53  1  0
  6 54  1  0
  6 55  1  0
  7 56  1  0
  8 57  1  0
  9 58  1  0
  9 59  1  0
 10 60  1  0
 11 61  1  0
 11 62  1  0
 12 63  1  0
 12 64  1  0
 13 65  1  0
 13 66  1  0
 14 67  1  0
 15 68  1  0
 15 69  1  0
 15 70  1  0
 16 71  1  0
 16 72  1  0
 16 73  1  0
 17 74  1  0
 18 75  1  0
 18 76  1  0
 19 77  1  0
 20 78  1  0
 20 79  1  0
 20 80  1  0
 21 81  1  0
 21 82  1  0
 22 83  1  0
 22 84  1  0
 23 85  1  0
 24 86  1  0
 24 87  1  0
 25 88  1  0
 25 89  1  0
 25 90  1  0
 26 91  1  0
 26 92  1  0
 27 93  1  0
 28 94  1  0
 28 95  1  0
 28 96  1  0
 29 97  1  0
 31 98  1  0
 31 99  1  0
 32100  1  0
 34101  1  0
 34102  1  0
 34103  1  0
 35104  1  0
 35105  1  0
 37106  1  0
 37107  1  0
 38108  1  0
 40109  1  0
 40110  1  0
 40111  1  0
 41112  1  0
 41113  1  0
 43114  1  0
 43115  1  0
 44116  1  0
 44117  1  0
 44118  1  0
 45119  1  0
 45120  1  0
M  END
$$$$
