
     RDKit          2D

113121  0  0  0  0  0  0  0  0999 V2000
    8.2771    2.7997    0.0000 C   0  0  0  0  0  0  0  0  0  0  0  0
    7.1592    1.7996    0.0000 C   0  0  0  0  0  0  0  0  0  0  0  0
    5.7340    2.2676    0.0000 C   0  0  0  0  0  0  0  0  0  0  0  0
    4.3089    2.7357    0.0000 C   0  0  0  0  0  0  0  0  0  0  0  0
    7.4664    0.3314    0.0000 C   0  0  0  0  0  0  0  0  0  0  0  0
    7.7736   -1.1368    0.0000 C   0  0  0  0  0  0  0  0  0  0  0  0
    5.9982    0.0241    0.0000 C   0  0  0  0  0  0  0  0  0  0  0  0
    4.5134    0.2376    0.0000 C   0  0  0  0  0  0  0  0  0  0  0  0
    3.5862   -0.9415    0.0000 C   0  0  0  0  0  0  0  0  0  0  0  0
    2.3643   -0.0714    0.0000 C   0  0  0  0  0  0  0  0  0  0  0  0
    0.8660    0.0000    0.0000 C   0  0  0  0  0  0  0  0  0  0  0  0
   -0.4330    0.7500    0.0000 C   0  0  0  0  0  0  0  0  0  0  0  0
   -1.8099    1.3451    0.0000 Mg  0  0  0  0  0  2  0  0  0  0  0  0
   -3.1337    0.6397    0.0000 C   0  0  0  0  0  0  0  0  0  0  0  0
   -3.4075   -0.8351    0.0000 C   0  0  0  0  0  0  0  0  0  0  0  0
   -4.7844   -0.2400    0.0000 C   0  0  0  0  0  0  0  0  0  0  0  0
   -6.1613    0.3551    0.0000 C   0  0  0  0  0  0  0  0  0  0  0  0
   -5.3795   -1.6169    0.0000 C   0  0  0  0  0  0  0  0  0  0  0  0
   -5.9746   -2.9938    0.0000 C   0  0  0  0  0  0  0  0  0  0  0  0
   -6.7564   -1.0218    0.0000 C   0  0  0  0  0  0  0  0  0  0  0  0
   -8.1333   -0.4267    0.0000 C   0  0  0  0  0  0  0  0  0  0  0  0
   -9.5102    0.1685    0.0000 C   0  0  0  0  0  0  0  0  0  0  0  0
   -7.3515   -2.3987    0.0000 O   0  0  0  0  0  0  0  0  0  0  0  0
   -8.8415   -2.5717    0.0000 C   0  0  0  0  0  0  0  0  0  0  0  0
   -2.6136   -2.2258    0.0000 C   0  0  0  0  0  0  0  0  0  0  0  0
   -4.1068   -2.3684    0.0000 C   0  0  0  0  0  0  0  0  0  0  0  0
   -3.9642   -3.8616    0.0000 C   0  0  0  0  0  0  0  0  0  0  0  0
   -2.4710   -3.7190    0.0000 C   0  0  0  0  0  0  0  0  0  0  0  0
   -0.9778   -3.5765    0.0000 C   0  0  0  0  0  0  0  0  0  0  0  0
   -0.0505   -4.7555    0.0000 C   0  0  0  0  0  0  0  0  0  0  0  0
    1.3670   -5.2461    0.0000 C   0  0  0  0  0  0  0  0  0  0  0  0
    2.8247   -4.8925    0.0000 C   0  0  0  0  0  0  0  0  0  0  0  0
    2.6821   -6.3857    0.0000 C   0  0  0  0  0  0  0  0  0  0  0  0
    3.8598   -3.8069    0.0000 C   0  0  0  0  0  0  0  0  0  0  0  0
    5.2773   -3.3163    0.0000 C   0  0  0  0  0  0  0  0  0  0  0  0
    4.1437   -2.3340    0.0000 C   0  0  0  0  0  0  0  0  0  0  0  0
    5.6284   -2.5475    0.0000 C   0  0  0  0  0  0  0  0  0  0  0  0
    6.5557   -1.3684    0.0000 C   0  0  0  0  0  0  0  0  0  0  0  0
    7.1131   -2.7610    0.0000 C   0  0  0  0  0  0  0  0  0  0  0  0
    6.1859   -3.9400    0.0000 C   0  0  0  0  0  0  0  0  0  0  0  0
    7.1861   -5.0579    0.0000 C   0  0  0  0  0  0  0  0  0  0  0  0
    4.9113   -4.7309    0.0000 C   0  0  0  0  0  0  0  0  0  0  0  0
    3.6367   -5.5217    0.0000 C   0  0  0  0  0  0  0  0  0  0  0  0
   -1.1204   -2.0833    0.0000 C   0  0  0  0  0  0  0  0  0  0  0  0
   -0.4330   -0.7500    0.0000 C   0  0  0  0  0  0  0  0  0  0  0  0
    7.9698    4.2679    0.0000 H   0  0  0  0  0  0  0  0  0  0  0  0
    9.7022    2.3317    0.0000 H   0  0  0  0  0  0  0  0  0  0  0  0
    5.0958    0.9102    0.0000 H   0  0  0  0  0  0  0  0  0  0  0  0
    6.2021    3.6927    0.0000 H   0  0  0  0  0  0  0  0  0  0  0  0
    2.8838    3.2037    0.0000 H   0  0  0  0  0  0  0  0  0  0  0  0
    3.8409    1.3106    0.0000 H   0  0  0  0  0  0  0  0  0  0  0  0
    4.7770    4.1608    0.0000 H   0  0  0  0  0  0  0  0  0  0  0  0
    8.9346    0.6386    0.0000 H   0  0  0  0  0  0  0  0  0  0  0  0
    8.2575   -2.5567    0.0000 H   0  0  0  0  0  0  0  0  0  0  0  0
    9.2418   -0.8296    0.0000 H   0  0  0  0  0  0  0  0  0  0  0  0
    7.0560   -1.4841    0.0000 H   0  0  0  0  0  0  0  0  0  0  0  0
    5.5892    1.4673    0.0000 H   0  0  0  0  0  0  0  0  0  0  0  0
    4.8043    1.7092    0.0000 H   0  0  0  0  0  0  0  0  0  0  0  0
    3.1912    0.9460    0.0000 H   0  0  0  0  0  0  0  0  0  0  0  0
    5.0794   -0.7989    0.0000 H   0  0  0  0  0  0  0  0  0  0  0  0
    3.5862    0.7987    0.0000 H   0  0  0  0  0  0  0  0  0  0  0  0
    2.1203    1.4086    0.0000 H   0  0  0  0  0  0  0  0  0  0  0  0
    1.1100    1.4800    0.0000 H   0  0  0  0  0  0  0  0  0  0  0  0
   -1.1830    2.0490    0.0000 H   0  0  0  0  0  0  0  0  0  0  0  0
   -3.5269    2.0872    0.0000 H   0  0  0  0  0  0  0  0  0  0  0  0
   -4.6287    0.7616    0.0000 H   0  0  0  0  0  0  0  0  0  0  0  0
   -4.5605   -1.7946    0.0000 H   0  0  0  0  0  0  0  0  0  0  0  0
   -4.3615    1.1992    0.0000 H   0  0  0  0  0  0  0  0  0  0  0  0
   -7.4553    1.1136    0.0000 H   0  0  0  0  0  0  0  0  0  0  0  0
   -5.4027    1.6492    0.0000 H   0  0  0  0  0  0  0  0  0  0  0  0
   -5.7384    1.7943    0.0000 H   0  0  0  0  0  0  0  0  0  0  0  0
   -6.8595   -1.3726    0.0000 H   0  0  0  0  0  0  0  0  0  0  0  0
   -6.5697   -4.3707    0.0000 H   0  0  0  0  0  0  0  0  0  0  0  0
   -7.4546   -2.7495    0.0000 H   0  0  0  0  0  0  0  0  0  0  0  0
   -4.7826   -3.9044    0.0000 H   0  0  0  0  0  0  0  0  0  0  0  0
   -6.5121    0.4582    0.0000 H   0  0  0  0  0  0  0  0  0  0  0  0
   -9.1824   -1.4987    0.0000 H   0  0  0  0  0  0  0  0  0  0  0  0
   -7.7104    1.0125    0.0000 H   0  0  0  0  0  0  0  0  0  0  0  0
  -10.8871    0.7636    0.0000 H   0  0  0  0  0  0  0  0  0  0  0  0
   -8.9150    1.5454    0.0000 H   0  0  0  0  0  0  0  0  0  0  0  0
  -10.1053   -1.2084    0.0000 H   0  0  0  0  0  0  0  0  0  0  0  0
  -10.3315   -2.7448    0.0000 H   0  0  0  0  0  0  0  0  0  0  0  0
   -8.6684   -4.0617    0.0000 H   0  0  0  0  0  0  0  0  0  0  0  0
   -9.1949   -1.1139    0.0000 H   0  0  0  0  0  0  0  0  0  0  0  0
   -5.5211   -2.8681    0.0000 H   0  0  0  0  0  0  0  0  0  0  0  0
   -4.2494   -0.8752    0.0000 H   0  0  0  0  0  0  0  0  0  0  0  0
   -3.8216   -5.3548    0.0000 H   0  0  0  0  0  0  0  0  0  0  0  0
   -5.4574   -4.0042    0.0000 H   0  0  0  0  0  0  0  0  0  0  0  0
   -2.6939   -5.2024    0.0000 H   0  0  0  0  0  0  0  0  0  0  0  0
   -1.5682   -4.9554    0.0000 H   0  0  0  0  0  0  0  0  0  0  0  0
   -1.3072   -5.5746    0.0000 H   0  0  0  0  0  0  0  0  0  0  0  0
   -0.2334   -6.2444    0.0000 H   0  0  0  0  0  0  0  0  0  0  0  0
    0.4397   -6.4252    0.0000 H   0  0  0  0  0  0  0  0  0  0  0  0
    1.6717   -6.7149    0.0000 H   0  0  0  0  0  0  0  0  0  0  0  0
    3.8751   -5.9633    0.0000 H   0  0  0  0  0  0  0  0  0  0  0  0
    2.5395   -7.8789    0.0000 H   0  0  0  0  0  0  0  0  0  0  0  0
    4.1468   -6.7092    0.0000 H   0  0  0  0  0  0  0  0  0  0  0  0
    1.1827   -6.4262    0.0000 H   0  0  0  0  0  0  0  0  0  0  0  0
    4.5109   -5.1582    0.0000 H   0  0  0  0  0  0  0  0  0  0  0  0
    5.6678   -4.7646    0.0000 H   0  0  0  0  0  0  0  0  0  0  0  0
    6.6358   -2.6803    0.0000 H   0  0  0  0  0  0  0  0  0  0  0  0
    8.0417   -1.1644    0.0000 H   0  0  0  0  0  0  0  0  0  0  0  0
    8.5608   -3.1538    0.0000 H   0  0  0  0  0  0  0  0  0  0  0  0
    8.1862   -6.1758    0.0000 H   0  0  0  0  0  0  0  0  0  0  0  0
    6.1984   -6.1869    0.0000 H   0  0  0  0  0  0  0  0  0  0  0  0
    8.3040   -4.0578    0.0000 H   0  0  0  0  0  0  0  0  0  0  0  0
    5.5409   -6.0924    0.0000 H   0  0  0  0  0  0  0  0  0  0  0  0
    3.8356   -3.6855    0.0000 H   0  0  0  0  0  0  0  0  0  0  0  0
    2.7303   -6.7169    0.0000 H   0  0  0  0  0  0  0  0  0  0  0  0
    2.5610   -4.4764    0.0000 H   0  0  0  0  0  0  0  0  0  0  0  0
    4.5770   -6.6904    0.0000 H   0  0  0  0  0  0  0  0  0  0  0  0
   -1.9611   -0.8410    0.0000 H   0  0  0  0  0  0  0  0  0  0  0  0
    0.7006   -1.7323    0.0000 H   0  0  0  0  0  0  0  0  0  0  0  0
  1  2  2  3
  2  3  1  0
  3  4  1  0
  2  5  1  0
  5  6  1  0
  5  7  1  0
  7  8  1  0
  8  9  1  0
  9 10  1  0
 10 11  1  0
 11 12  1  0
 12 13  1  0
 13 14  1  0
 14 15  1  0
 15 16  1  0
 16 17  1  0
 16 18  1  0
 18 19  1  0
 18 20  1  0
 20 21  1  0
 21 22  1  0
 20 23  1  0
 23 24  1  0
 15 25  1  0
 25 26  1  6
 26 27  1  0
 27 28  1  0
 28 29  1  0
 29 30  1  0
 30 31  1  0
 31 32  1  0
 32 33  1  0
 32 34  1  0
 34 35  1  0
 36 35  1  6
 36 37  1  0
 37 38  1  0
 38 39  1  0
 39 40  1  0
 40 41  1  1
 40 42  1  0
 42 43  1  0
 29 44  1  0
 44 45  1  0
 38  7  1  0
 36  9  1  0
 39 37  1  0
 45 11  1  0
 45 12  1  0
 28 25  1  0
 36 34  1  0
 37 40  1  1
 44 25  1  0
  1 46  1  0
  1 47  1  0
  3 48  1  0
  3 49  1  0
  4 50  1  0
  4 51  1  0
  4 52  1  0
  5 53  1  1
  6 54  1  0
  6 55  1  0
  6 56  1  0
  7 57  1  1
  8 58  1  0
  8 59  1  0
  9 60  1  1
 10 61  1  0
 10 62  1  0
 11 63  1  6
 12 64  1  6
 14 65  1  0
 14 66  1  0
 15 67  1  1
 16 68  1  6
 17 69  1  0
 17 70  1  0
 17 71  1  0
 18 72  1  1
 19 73  1  0
 19 74  1  0
 19 75  1  0
 20 76  1  1
 21 77  1  0
 21 78  1  0
 22 79  1  0
 22 80  1  0
 22 81  1  0
 24 82  1  0
 24 83  1  0
 24 84  1  0
 26 85  1  0
 26 86  1  0
 27 87  1  0
 27 88  1  0
 28 89  1  1
 29 90  1  6
 30 91  1  0
 30 92  1  0
 31 93  1  0
 31 94  1  0
 32 95  1  1
 33 96  1  0
 33 97  1  0
 33 98  1  0
 34 99  1  6
 35100  1  0
 35101  1  0
 38102  1  1
 39103  1  1
 41104  1  0
 41105  1  0
 41106  1  0
 42107  1  0
 42108  1  0
 43109  1  0
 43110  1  0
 43111  1  0
 44112  1  1
 45113  1  6
M  END
$$$$
