
     RDKit          3D

 11 12  0  0  0  0  0  0  0  0999 V2000
   25.2315  -28.4140  -12.9669 O   0  0  0  0  0  0  0  0  0  0  0  0
   25.4141  -27.7220  -11.7612 C   0  0  0  0  0  0  0  0  0  0  0  0
   24.1758  -27.2239  -11.3259 O   0  0  0  0  0  0  0  0  0  0  0  0
   27.7533  -27.0578  -12.3780 C   0  0  0  0  0  0  0  0  0  0  0  0
   28.6835  -27.4884  -11.3211 C   0  0  0  0  0  0  0  0  0  0  0  0
   26.3893  -26.5587  -11.9807 C   0  0  0  0  0  0  0  0  0  0  0  0
   30.0003  -28.0063  -11.5763 C   0  0  0  0  0  0  0  0  0  0  0  0
   30.2483  -28.0456  -12.9104 C   0  0  0  0  0  0  0  0  0  0  0  0
   29.3317  -27.6279  -13.9640 C   0  0  0  0  0  0  0  0  0  0  0  0
   28.0805  -27.1320  -13.7826 C   0  0  0  0  0  0  0  0  0  0  0  0
   30.6052  -28.1282  -14.2620 C   0  0  0  0  0  0  0  0  0  0  0  0
  2  1  1  0
  3  2  1  0
  5  4  4  0
  6  2  1  0
  6  4  1  0
  7  5  4  0
  8  7  4  0
  9  8  4  0
 10  4  4  0
 10  9  4  0
 11  8  1  0
 11  9  1  0
M  END
$$$$
