
     RDKit          2D

 31 30  0  0  0  0  0  0  0  0999 V2000
    0.0000   -0.0000    0.0000 C   0  0  0  0  0  0  0  0  0  0  0  0
    1.5000   -0.0000    0.0000 O   0  0  0  0  0  0  0  0  0  0  0  0
    2.2500   -1.2990    0.0000 C   0  0  0  0  0  0  0  0  0  0  0  0
    0.9510   -2.0490    0.0000 N   0  0  0  0  0  2  0  0  0  0  0  0
    3.5490   -0.5490    0.0000 C   0  0  0  0  0  0  0  0  0  0  0  0
    4.8481    0.2010    0.0000 C   0  0  0  0  0  0  0  0  0  0  0  0
    6.1471    0.9510    0.0000 N   0  0  0  0  0  0  0  0  0  0  0  0
    3.0000   -2.5981    0.0000 N   0  0  0  0  0  2  0  0  0  0  0  0
    2.2500   -3.8971    0.0000 C   0  0  0  0  0  0  0  0  0  0  0  0
    1.5000   -5.1962    0.0000 C   0  0  0  0  0  0  0  0  0  0  0  0
    3.5490   -4.6471    0.0000 O   0  0  0  0  0  0  0  0  0  0  0  0
    0.9510   -3.1471    0.0000 N   0  0  0  0  0  0  0  0  0  0  0  0
   -0.3481   -3.8971    0.0000 C   0  0  0  0  0  0  0  0  0  0  0  0
   -1.6471   -4.6471    0.0000 Cl  0  0  0  0  0  0  0  0  0  0  0  0
   -1.5000    0.0000    0.0000 H   0  0  0  0  0  0  0  0  0  0  0  0
    0.0000    1.5000    0.0000 H   0  0  0  0  0  0  0  0  0  0  0  0
   -0.1080   -0.8791    0.0000 H   0  0  0  0  0  0  0  0  0  0  0  0
    0.2172   -1.7376    0.0000 H   0  0  0  0  0  0  0  0  0  0  0  0
    4.2990   -1.8481    0.0000 H   0  0  0  0  0  0  0  0  0  0  0  0
    2.7990    0.7500    0.0000 H   0  0  0  0  0  0  0  0  0  0  0  0
    4.0981    1.5000    0.0000 H   0  0  0  0  0  0  0  0  0  0  0  0
    5.5981   -1.0981    0.0000 H   0  0  0  0  0  0  0  0  0  0  0  0
    7.4462    0.2010    0.0000 H   0  0  0  0  0  0  0  0  0  0  0  0
    6.1471    2.4510    0.0000 H   0  0  0  0  0  0  0  0  0  0  0  0
    0.7500   -6.4952    0.0000 H   0  0  0  0  0  0  0  0  0  0  0  0
    0.0184   -4.9616    0.0000 H   0  0  0  0  0  0  0  0  0  0  0  0
    2.6979   -6.0989    0.0000 H   0  0  0  0  0  0  0  0  0  0  0  0
    3.7319   -6.1359    0.0000 H   0  0  0  0  0  0  0  0  0  0  0  0
    0.5880   -1.6917    0.0000 H   0  0  0  0  0  0  0  0  0  0  0  0
   -1.0981   -2.5981    0.0000 H   0  0  0  0  0  0  0  0  0  0  0  0
    0.2380   -5.2779    0.0000 H   0  0  0  0  0  0  0  0  0  0  0  0
  1  2  1  0
  2  3  1  0
  3  4  1  0
  3  5  1  0
  5  6  1  0
  6  7  1  0
  3  8  1  0
  8  9  1  0
  9 10  1  0
  9 11  1  0
  9 12  1  0
 12 13  1  0
 13 14  1  0
  1 15  1  0
  1 16  1  0
  1 17  1  0
  4 18  1  0
  5 19  1  0
  5 20  1  0
  6 21  1  0
  6 22  1  0
  7 23  1  0
  7 24  1  0
 10 25  1  0
 10 26  1  0
 10 27  1  0
 11 28  1  0
 12 29  1  0
 13 30  1  0
 13 31  1  0
M  RAD  2   4   2   8   2
M  END
$$$$
