
     RDKit          2D

 37 38  0  0  0  0  0  0  0  0999 V2000
   -9.1782   -1.2990    0.0000 C   0  0  0  0  0  0  0  0  0  0  0  0
   -7.6782   -1.2990    0.0000 C   0  0  0  0  0  0  0  0  0  0  0  0
   -6.9282   -2.5981    0.0000 C   0  0  0  0  0  0  0  0  0  0  0  0
   -6.9282   -0.0000    0.0000 C   0  0  0  0  0  0  0  0  0  0  0  0
   -6.1782    1.2990    0.0000 C   0  0  0  0  0  0  0  0  0  0  0  0
   -5.6292   -0.7500    0.0000 C   0  0  0  0  0  0  0  0  0  0  0  0
   -4.3301   -1.5000    0.0000 N   0  0  0  0  0  0  0  0  0  0  0  0
   -4.3301   -3.0000    0.0000 C   0  0  0  0  0  0  0  0  0  0  0  0
   -3.0311   -0.7500    0.0000 C   0  0  0  0  0  0  0  0  0  0  0  0
   -3.0311    0.7500    0.0000 N   0  0  0  0  0  0  0  0  0  0  0  0
   -1.7321    1.5000    0.0000 C   0  0  0  0  0  0  0  0  0  0  0  0
   -2.6962    2.6491    0.0000 N   0  0  0  0  0  0  0  0  0  0  0  0
   -0.4330    0.7500    0.0000 N   0  0  0  0  0  0  0  0  0  0  0  0
    0.8660    0.0000    0.0000 C   0  0  0  0  0  0  0  0  0  0  0  0
   -0.4330   -0.7500    0.0000 C   0  0  0  0  0  0  0  0  0  0  0  0
   -1.7321   -1.5000    0.0000 N   0  0  0  0  0  0  0  0  0  0  0  0
   -9.9282   -2.5981    0.0000 H   0  0  0  0  0  0  0  0  0  0  0  0
   -9.9282   -0.0000    0.0000 H   0  0  0  0  0  0  0  0  0  0  0  0
   -6.1782   -3.8971    0.0000 H   0  0  0  0  0  0  0  0  0  0  0  0
   -8.2272   -3.3481    0.0000 H   0  0  0  0  0  0  0  0  0  0  0  0
   -6.1944   -2.2866    0.0000 H   0  0  0  0  0  0  0  0  0  0  0  0
   -8.2272    0.7500    0.0000 H   0  0  0  0  0  0  0  0  0  0  0  0
   -5.4282    2.5981    0.0000 H   0  0  0  0  0  0  0  0  0  0  0  0
   -7.4772    2.0490    0.0000 H   0  0  0  0  0  0  0  0  0  0  0  0
   -5.3629    0.9530    0.0000 H   0  0  0  0  0  0  0  0  0  0  0  0
   -5.0961   -0.0426    0.0000 H   0  0  0  0  0  0  0  0  0  0  0  0
   -5.7538   -1.5374    0.0000 H   0  0  0  0  0  0  0  0  0  0  0  0
   -4.3301   -4.5000    0.0000 H   0  0  0  0  0  0  0  0  0  0  0  0
   -5.8301   -3.0000    0.0000 H   0  0  0  0  0  0  0  0  0  0  0  0
   -2.8301   -3.0000    0.0000 H   0  0  0  0  0  0  0  0  0  0  0  0
   -0.7679    2.6491    0.0000 H   0  0  0  0  0  0  0  0  0  0  0  0
   -2.1832    4.0586    0.0000 H   0  0  0  0  0  0  0  0  0  0  0  0
   -4.1734    2.3886    0.0000 H   0  0  0  0  0  0  0  0  0  0  0  0
    1.8302    1.1491    0.0000 H   0  0  0  0  0  0  0  0  0  0  0  0
    1.8302   -1.1491    0.0000 H   0  0  0  0  0  0  0  0  0  0  0  0
   -1.4751    0.3290    0.0000 H   0  0  0  0  0  0  0  0  0  0  0  0
   -1.7321   -3.0000    0.0000 H   0  0  0  0  0  0  0  0  0  0  0  0
  1  2  2  3
  2  3  1  0
  2  4  1  0
  4  5  1  0
  4  6  1  0
  6  7  1  0
  7  8  1  0
  7  9  1  0
  9 10  2  0
 10 11  1  0
 11 12  1  0
 11 13  1  0
 13 14  1  0
 14 15  1  0
 15 16  1  0
 16  9  1  0
 15 13  1  0
  1 17  1  0
  1 18  1  0
  3 19  1  0
  3 20  1  0
  3 21  1  0
  4 22  1  0
  5 23  1  0
  5 24  1  0
  5 25  1  0
  6 26  1  0
  6 27  1  0
  8 28  1  0
  8 29  1  0
  8 30  1  0
 11 31  1  0
 12 32  1  0
 12 33  1  0
 14 34  1  0
 14 35  1  0
 15 36  1  0
 16 37  1  0
M  END
$$$$
