
     RDKit          2D

 44 47  0  0  0  0  0  0  0  0999 V2000
    0.6376   -4.9192    0.0000 C   0  0  0  0  0  0  0  0  0  0  0  0
   -0.5759   -4.0375    0.0000 C   0  0  0  0  0  0  0  0  0  0  0  0
   -1.7895   -3.1559    0.0000 C   0  0  0  0  0  0  0  0  0  0  0  0
   -3.0030   -2.2742    0.0000 C   0  0  0  0  0  0  0  0  0  0  0  0
   -4.2165   -1.3925    0.0000 C   0  0  0  0  0  0  0  0  0  0  0  0
   -2.1213   -1.0607    0.0000 C   0  0  0  0  0  0  0  0  0  0  0  0
   -3.4578   -0.3797    0.0000 C   0  0  0  0  0  0  0  0  0  0  0  0
   -3.2232    1.1019    0.0000 C   0  0  0  0  0  0  0  0  0  0  0  0
   -1.7416    1.3365    0.0000 C   0  0  0  0  0  0  0  0  0  0  0  0
   -1.0607    0.0000    0.0000 C   0  0  0  0  0  0  0  0  0  0  0  0
   -0.0000   -1.0607    0.0000 C   0  0  0  0  0  0  0  0  0  0  0  0
    1.0607    0.0000    0.0000 O   0  0  0  0  0  0  0  0  0  0  0  0
    0.0000    1.0607    0.0000 C   0  0  0  0  0  0  0  0  0  0  0  0
   -1.0607    2.1213    0.0000 C   0  0  0  0  0  0  0  0  0  0  0  0
   -0.0000    3.1820    0.0000 C   0  0  0  0  0  0  0  0  0  0  0  0
   -1.0607    4.2426    0.0000 C   0  0  0  0  0  0  0  0  0  0  0  0
   -2.1213    3.1820    0.0000 C   0  0  0  0  0  0  0  0  0  0  0  0
   -1.0607   -2.1213    0.0000 O   0  0  0  0  0  0  0  0  0  0  0  0
    1.8511   -5.8009    0.0000 H   0  0  0  0  0  0  0  0  0  0  0  0
    1.5193   -3.7057    0.0000 H   0  0  0  0  0  0  0  0  0  0  0  0
   -0.2441   -6.1327    0.0000 H   0  0  0  0  0  0  0  0  0  0  0  0
   -1.4576   -5.2511    0.0000 H   0  0  0  0  0  0  0  0  0  0  0  0
    0.3057   -2.8240    0.0000 H   0  0  0  0  0  0  0  0  0  0  0  0
   -2.6712   -4.3694    0.0000 H   0  0  0  0  0  0  0  0  0  0  0  0
   -1.1788   -2.6435    0.0000 H   0  0  0  0  0  0  0  0  0  0  0  0
   -3.8847   -3.4877    0.0000 H   0  0  0  0  0  0  0  0  0  0  0  0
   -5.5285   -0.6653    0.0000 H   0  0  0  0  0  0  0  0  0  0  0  0
   -5.0982   -2.6060    0.0000 H   0  0  0  0  0  0  0  0  0  0  0  0
   -3.6547   -0.0017    0.0000 H   0  0  0  0  0  0  0  0  0  0  0  0
   -4.3183   -1.6084    0.0000 H   0  0  0  0  0  0  0  0  0  0  0  0
   -4.8486    0.1823    0.0000 H   0  0  0  0  0  0  0  0  0  0  0  0
   -4.7211    1.1804    0.0000 H   0  0  0  0  0  0  0  0  0  0  0  0
   -3.4837    2.5791    0.0000 H   0  0  0  0  0  0  0  0  0  0  0  0
   -2.4689    2.6484    0.0000 H   0  0  0  0  0  0  0  0  0  0  0  0
   -0.5130    2.1969    0.0000 H   0  0  0  0  0  0  0  0  0  0  0  0
    1.0607   -2.1213    0.0000 H   0  0  0  0  0  0  0  0  0  0  0  0
    1.1820    1.9841    0.0000 H   0  0  0  0  0  0  0  0  0  0  0  0
   -2.3465    1.3488    0.0000 H   0  0  0  0  0  0  0  0  0  0  0  0
    1.0607    4.2426    0.0000 H   0  0  0  0  0  0  0  0  0  0  0  0
    1.1820    2.2585    0.0000 H   0  0  0  0  0  0  0  0  0  0  0  0
   -2.1213    5.3033    0.0000 H   0  0  0  0  0  0  0  0  0  0  0  0
   -0.0000    5.3033    0.0000 H   0  0  0  0  0  0  0  0  0  0  0  0
   -3.3034    2.2585    0.0000 H   0  0  0  0  0  0  0  0  0  0  0  0
   -3.1820    4.2426    0.0000 H   0  0  0  0  0  0  0  0  0  0  0  0
  1  2  1  0
  2  3  1  0
  3  4  1  0
  4  5  1  0
  4  6  1  0
  6  7  1  0
  7  8  1  0
  8  9  1  0
  9 10  1  0
 10 11  1  0
 11 12  1  0
 12 13  1  0
 13 14  1  0
 14 15  1  0
 15 16  1  0
 16 17  1  0
 11 18  1  0
 10  6  1  0
 17 14  1  0
 18  6  1  0
 13 10  1  0
  1 19  1  0
  1 20  1  0
  1 21  1  0
  2 22  1  0
  2 23  1  0
  3 24  1  0
  3 25  1  0
  4 26  1  0
  5 27  1  0
  5 28  1  0
  5 29  1  0
  7 30  1  0
  7 31  1  0
  8 32  1  0
  8 33  1  0
  9 34  1  0
  9 35  1  0
 11 36  1  0
 13 37  1  0
 14 38  1  0
 15 39  1  0
 15 40  1  0
 16 41  1  0
 16 42  1  0
 17 43  1  0
 17 44  1  0
M  END
$$$$
