
     RDKit          2D

 41 44  0  0  0  0  0  0  0  0999 V2000
   -1.7321    7.5000    0.0000 O   0  0  0  0  0  0  0  0  0  0  0  0
   -0.4330    6.7500    0.0000 C   0  0  0  0  0  0  0  0  0  0  0  0
   -0.4330    5.2500    0.0000 C   0  0  0  0  0  0  0  0  0  0  0  0
   -0.4330    3.7500    0.0000 C   0  0  0  0  0  0  0  0  0  0  0  0
   -0.4330    2.2500    0.0000 C   0  0  0  0  0  0  0  0  0  0  0  0
   -0.4330    0.7500    0.0000 C   0  0  0  0  0  0  0  0  0  0  0  0
    0.8660    0.0000    0.0000 P   0  0  0  0  0  0  0  0  0  0  0  0
   -0.4330   -0.7500    0.0000 C   0  0  0  0  0  0  0  0  0  0  0  0
   -1.7321   -1.5000    0.0000 C   0  0  0  0  0  0  0  0  0  0  0  0
   -1.2190   -2.9095    0.0000 C   0  0  0  0  0  0  0  0  0  0  0  0
   -0.7060   -4.3191    0.0000 C   0  0  0  0  0  0  0  0  0  0  0  0
    0.7035   -3.8060    0.0000 O   0  0  0  0  0  0  0  0  0  0  0  0
   -0.1930   -5.7286    0.0000 C   0  0  0  0  0  0  0  0  0  0  0  0
    0.3201   -7.1382    0.0000 O   0  0  0  0  0  0  0  0  0  0  0  0
   -2.6286   -3.4226    0.0000 C   0  0  0  0  0  0  0  0  0  0  0  0
   -2.3681   -4.8998    0.0000 O   0  0  0  0  0  0  0  0  0  0  0  0
   -4.1286   -3.4226    0.0000 C   0  0  0  0  0  0  0  0  0  0  0  0
   -3.3786   -2.1235    0.0000 C   0  0  0  0  0  0  0  0  0  0  0  0
   -4.5276   -1.1593    0.0000 O   0  0  0  0  0  0  0  0  0  0  0  0
   -1.7321    0.0000    0.0000 C   0  0  0  0  0  0  0  0  0  0  0  0
    0.8660    7.5000    0.0000 H   0  0  0  0  0  0  0  0  0  0  0  0
   -1.9330    5.2500    0.0000 H   0  0  0  0  0  0  0  0  0  0  0  0
    1.0670    5.2500    0.0000 H   0  0  0  0  0  0  0  0  0  0  0  0
    1.0670    3.7500    0.0000 H   0  0  0  0  0  0  0  0  0  0  0  0
   -1.9330    3.7500    0.0000 H   0  0  0  0  0  0  0  0  0  0  0  0
   -1.9330    2.2500    0.0000 H   0  0  0  0  0  0  0  0  0  0  0  0
    1.0670    2.2500    0.0000 H   0  0  0  0  0  0  0  0  0  0  0  0
    2.3660    0.0000    0.0000 H   0  0  0  0  0  0  0  0  0  0  0  0
   -2.5273   -1.4443    0.0000 H   0  0  0  0  0  0  0  0  0  0  0  0
    0.1905   -2.3965    0.0000 H   0  0  0  0  0  0  0  0  0  0  0  0
   -1.4403   -4.8144    0.0000 H   0  0  0  0  0  0  0  0  0  0  0  0
    1.9616   -4.6230    0.0000 H   0  0  0  0  0  0  0  0  0  0  0  0
    1.2686   -5.3912    0.0000 H   0  0  0  0  0  0  0  0  0  0  0  0
   -1.6025   -6.2416    0.0000 H   0  0  0  0  0  0  0  0  0  0  0  0
   -0.6441   -8.2872    0.0000 H   0  0  0  0  0  0  0  0  0  0  0  0
   -3.5172   -5.8640    0.0000 H   0  0  0  0  0  0  0  0  0  0  0  0
   -4.3890   -4.8998    0.0000 H   0  0  0  0  0  0  0  0  0  0  0  0
   -5.5381   -2.9095    0.0000 H   0  0  0  0  0  0  0  0  0  0  0  0
   -2.8001   -1.3273    0.0000 H   0  0  0  0  0  0  0  0  0  0  0  0
   -4.2672    0.3179    0.0000 H   0  0  0  0  0  0  0  0  0  0  0  0
   -3.0311    0.7500    0.0000 H   0  0  0  0  0  0  0  0  0  0  0  0
  1  2  2  0
  2  3  1  0
  3  4  1  0
  4  5  1  0
  5  6  1  0
  6  7  1  0
  7  8  1  0
  8  9  1  0
  9 10  1  0
 10 11  1  0
 11 12  1  0
 11 13  1  0
 13 14  1  0
 10 15  1  0
 15 16  1  0
 15 17  1  0
 17 18  1  0
 18 19  1  0
  9 20  1  0
  8  6  1  0
 18 15  1  0
 20  6  1  0
 20  8  1  0
  2 21  1  0
  3 22  1  0
  3 23  1  0
  4 24  1  0
  4 25  1  0
  5 26  1  0
  5 27  1  0
  7 28  1  0
  9 29  1  0
 10 30  1  0
 11 31  1  0
 12 32  1  0
 13 33  1  0
 13 34  1  0
 14 35  1  0
 16 36  1  0
 17 37  1  0
 17 38  1  0
 18 39  1  0
 19 40  1  0
 20 41  1  0
M  END
$$$$
