
     RDKit          2D

110117  0  0  0  0  0  0  0  0999 V2000
   -5.5935    3.7184    0.0000 C   0  0  0  0  0  0  0  0  0  0  0  0
   -7.0201    4.1819    0.0000 C   0  0  0  0  0  0  0  0  0  0  0  0
   -7.3320    5.6491    0.0000 C   0  0  0  0  0  0  0  0  0  0  0  0
   -7.1232    7.1345    0.0000 C   0  0  0  0  0  0  0  0  0  0  0  0
   -8.3052    8.0580    0.0000 C   0  0  0  0  0  0  0  0  0  0  0  0
   -9.6960    7.4961    0.0000 C   0  0  0  0  0  0  0  0  0  0  0  0
   -9.9048    6.0107    0.0000 C   0  0  0  0  0  0  0  0  0  0  0  0
   -8.7227    5.0872    0.0000 C   0  0  0  0  0  0  0  0  0  0  0  0
   -9.8375    4.0835    0.0000 C   0  0  0  0  0  0  0  0  0  0  0  0
  -10.8412    5.1983    0.0000 C   0  0  0  0  0  0  0  0  0  0  0  0
  -11.9559    4.1946    0.0000 C   0  0  0  0  0  0  0  0  0  0  0  0
  -13.0706    3.1909    0.0000 C   0  0  0  0  0  0  0  0  0  0  0  0
  -14.1853    2.1872    0.0000 C   0  0  0  0  0  0  0  0  0  0  0  0
  -14.0743    4.3056    0.0000 C   0  0  0  0  0  0  0  0  0  0  0  0
  -12.8608    5.1873    0.0000 C   0  0  0  0  0  0  0  0  0  0  0  0
  -11.6472    6.0689    0.0000 C   0  0  0  0  0  0  0  0  0  0  0  0
  -14.8243    5.6046    0.0000 C   0  0  0  0  0  0  0  0  0  0  0  0
  -16.2915    5.2927    0.0000 C   0  0  0  0  0  0  0  0  0  0  0  0
  -16.4483    3.8010    0.0000 C   0  0  0  0  0  0  0  0  0  0  0  0
  -15.0780    3.1909    0.0000 C   0  0  0  0  0  0  0  0  0  0  0  0
  -10.9522    3.0798    0.0000 C   0  0  0  0  0  0  0  0  0  0  0  0
   -9.9485    1.9651    0.0000 C   0  0  0  0  0  0  0  0  0  0  0  0
   -8.9448    0.8504    0.0000 N   0  0  0  0  0  0  0  0  0  0  0  0
   -9.4083   -0.5762    0.0000 C   0  0  0  0  0  0  0  0  0  0  0  0
   -7.9817   -1.0397    0.0000 C   0  0  0  0  0  0  0  0  0  0  0  0
   -6.5551   -1.5032    0.0000 C   0  0  0  0  0  0  0  0  0  0  0  0
   -6.0916   -0.0766    0.0000 C   0  0  0  0  0  0  0  0  0  0  0  0
   -4.6650   -0.5402    0.0000 C   0  0  0  0  0  0  0  0  0  0  0  0
   -3.2385   -1.0037    0.0000 C   0  0  0  0  0  0  0  0  0  0  0  0
   -1.8119   -1.4672    0.0000 C   0  0  0  0  0  0  0  0  0  0  0  0
   -0.5128   -2.2172    0.0000 C   0  0  0  0  0  0  0  0  0  0  0  0
    0.7500   -1.2990    0.0000 C   0  0  0  0  0  0  0  0  0  0  0  0
    1.5000   -0.0000    0.0000 C   0  0  0  0  0  0  0  0  0  0  0  0
    0.7500    1.2990    0.0000 O   0  0  0  0  0  0  0  0  0  0  0  0
   -0.7500    1.2990    0.0000 C   0  0  0  0  0  0  0  0  0  0  0  0
   -1.5000   -0.0000    0.0000 C   0  0  0  0  0  0  0  0  0  0  0  0
   -0.7500   -1.2990    0.0000 C   0  0  0  0  0  0  0  0  0  0  0  0
   -5.1286   -1.9668    0.0000 N   0  0  0  0  0  0  0  0  0  0  0  0
  -10.8349   -0.1127    0.0000 C   0  0  0  0  0  0  0  0  0  0  0  0
  -10.3714    1.3139    0.0000 N   0  0  0  0  0  0  0  0  0  0  0  0
  -11.7980    1.7775    0.0000 N   0  0  0  0  0  2  0  0  0  0  0  0
  -12.2615    0.3509    0.0000 C   0  0  0  0  0  0  0  0  0  0  0  0
  -13.0784   -0.9071    0.0000 N   0  0  0  0  0  2  0  0  0  0  0  0
  -13.7594    0.4294    0.0000 C   0  0  0  0  0  0  0  0  0  0  0  0
  -15.1939   -0.0092    0.0000 C   0  0  0  0  0  0  0  0  0  0  0  0
   -5.2817    2.2512    0.0000 H   0  0  0  0  0  0  0  0  0  0  0  0
   -4.4788    4.7221    0.0000 H   0  0  0  0  0  0  0  0  0  0  0  0
   -8.0042    3.0498    0.0000 H   0  0  0  0  0  0  0  0  0  0  0  0
   -5.8329    5.7015    0.0000 H   0  0  0  0  0  0  0  0  0  0  0  0
   -5.6966    6.6710    0.0000 H   0  0  0  0  0  0  0  0  0  0  0  0
   -6.4190    8.4590    0.0000 H   0  0  0  0  0  0  0  0  0  0  0  0
   -7.1905    9.0617    0.0000 H   0  0  0  0  0  0  0  0  0  0  0  0
   -9.1001    9.3301    0.0000 H   0  0  0  0  0  0  0  0  0  0  0  0
  -10.0079    8.9633    0.0000 H   0  0  0  0  0  0  0  0  0  0  0  0
  -11.1775    7.2614    0.0000 H   0  0  0  0  0  0  0  0  0  0  0  0
  -11.0704    6.9548    0.0000 H   0  0  0  0  0  0  0  0  0  0  0  0
  -10.9085    4.8961    0.0000 H   0  0  0  0  0  0  0  0  0  0  0  0
   -8.0889    3.7278    0.0000 H   0  0  0  0  0  0  0  0  0  0  0  0
   -8.8338    2.9688    0.0000 H   0  0  0  0  0  0  0  0  0  0  0  0
  -11.7015    6.4270    0.0000 H   0  0  0  0  0  0  0  0  0  0  0  0
  -10.0024    6.4419    0.0000 H   0  0  0  0  0  0  0  0  0  0  0  0
  -12.6600    5.5190    0.0000 H   0  0  0  0  0  0  0  0  0  0  0  0
  -14.3142    4.0296    0.0000 H   0  0  0  0  0  0  0  0  0  0  0  0
  -15.3000    1.1835    0.0000 H   0  0  0  0  0  0  0  0  0  0  0  0
  -15.4289    3.0259    0.0000 H   0  0  0  0  0  0  0  0  0  0  0  0
  -13.1816    1.0724    0.0000 H   0  0  0  0  0  0  0  0  0  0  0  0
  -13.5879    6.4992    0.0000 H   0  0  0  0  0  0  0  0  0  0  0  0
  -11.7116    4.2231    0.0000 H   0  0  0  0  0  0  0  0  0  0  0  0
  -10.3353    6.7961    0.0000 H   0  0  0  0  0  0  0  0  0  0  0  0
  -12.3744    7.3809    0.0000 H   0  0  0  0  0  0  0  0  0  0  0  0
  -12.6703    7.1659    0.0000 H   0  0  0  0  0  0  0  0  0  0  0  0
  -13.5386    6.3772    0.0000 H   0  0  0  0  0  0  0  0  0  0  0  0
  -15.2878    7.0312    0.0000 H   0  0  0  0  0  0  0  0  0  0  0  0
  -16.4483    6.7845    0.0000 H   0  0  0  0  0  0  0  0  0  0  0  0
  -17.7915    5.2927    0.0000 H   0  0  0  0  0  0  0  0  0  0  0  0
  -17.9155    4.1128    0.0000 H   0  0  0  0  0  0  0  0  0  0  0  0
  -16.9118    2.3744    0.0000 H   0  0  0  0  0  0  0  0  0  0  0  0
  -16.1200    2.1119    0.0000 H   0  0  0  0  0  0  0  0  0  0  0  0
  -13.9810    2.1678    0.0000 H   0  0  0  0  0  0  0  0  0  0  0  0
  -12.2766    2.3757    0.0000 H   0  0  0  0  0  0  0  0  0  0  0  0
  -11.2729    1.2610    0.0000 H   0  0  0  0  0  0  0  0  0  0  0  0
   -8.8338    2.9688    0.0000 H   0  0  0  0  0  0  0  0  0  0  0  0
   -7.4776    1.1623    0.0000 H   0  0  0  0  0  0  0  0  0  0  0  0
   -9.8718   -2.0028    0.0000 H   0  0  0  0  0  0  0  0  0  0  0  0
   -7.5182    0.3869    0.0000 H   0  0  0  0  0  0  0  0  0  0  0  0
   -8.4453   -2.4663    0.0000 H   0  0  0  0  0  0  0  0  0  0  0  0
   -7.0187   -2.9298    0.0000 H   0  0  0  0  0  0  0  0  0  0  0  0
   -5.6281    1.3499    0.0000 H   0  0  0  0  0  0  0  0  0  0  0  0
   -7.5182    0.3869    0.0000 H   0  0  0  0  0  0  0  0  0  0  0  0
   -4.2015    0.8864    0.0000 H   0  0  0  0  0  0  0  0  0  0  0  0
   -2.9523    0.4688    0.0000 H   0  0  0  0  0  0  0  0  0  0  0  0
   -3.7020   -2.4303    0.0000 H   0  0  0  0  0  0  0  0  0  0  0  0
   -2.4220   -2.8375    0.0000 H   0  0  0  0  0  0  0  0  0  0  0  0
   -1.3945   -3.4307    0.0000 H   0  0  0  0  0  0  0  0  0  0  0  0
    0.6019   -3.2209    0.0000 H   0  0  0  0  0  0  0  0  0  0  0  0
    1.5000   -2.5981    0.0000 H   0  0  0  0  0  0  0  0  0  0  0  0
    2.6491    0.9642    0.0000 H   0  0  0  0  0  0  0  0  0  0  0  0
    2.6491   -0.9642    0.0000 H   0  0  0  0  0  0  0  0  0  0  0  0
   -2.1595    1.8121    0.0000 H   0  0  0  0  0  0  0  0  0  0  0  0
   -0.4895    2.7762    0.0000 H   0  0  0  0  0  0  0  0  0  0  0  0
   -2.9888    0.1828    0.0000 H   0  0  0  0  0  0  0  0  0  0  0  0
   -0.8547   -2.7954    0.0000 H   0  0  0  0  0  0  0  0  0  0  0  0
   -1.9935   -2.1379    0.0000 H   0  0  0  0  0  0  0  0  0  0  0  0
   -4.4476   -3.3033    0.0000 H   0  0  0  0  0  0  0  0  0  0  0  0
  -11.2984   -1.5392    0.0000 H   0  0  0  0  0  0  0  0  0  0  0  0
   -9.0349    1.9949    0.0000 H   0  0  0  0  0  0  0  0  0  0  0  0
  -14.1224    1.8848    0.0000 H   0  0  0  0  0  0  0  0  0  0  0  0
  -16.6283   -0.4477    0.0000 H   0  0  0  0  0  0  0  0  0  0  0  0
  -15.9665    1.2765    0.0000 H   0  0  0  0  0  0  0  0  0  0  0  0
  -14.7553   -1.4436    0.0000 H   0  0  0  0  0  0  0  0  0  0  0  0
  1  2  2  3
  2  3  1  0
  3  4  1  0
  4  5  1  0
  5  6  1  0
  6  7  1  0
  7  8  1  0
  8  9  1  0
  9 10  1  0
 10 11  1  0
 11 12  1  0
 12 13  1  0
 12 14  1  0
 14 15  1  0
 15 16  1  0
 14 17  1  0
 17 18  1  0
 18 19  1  0
 19 20  1  0
 11 21  1  0
 21 22  1  0
 22 23  1  0
 23 24  1  0
 24 25  1  0
 25 26  1  0
 26 27  1  0
 27 28  1  0
 28 29  1  0
 29 30  1  0
 30 31  1  0
 31 32  1  0
 32 33  1  0
 33 34  1  0
 34 35  1  0
 35 36  1  0
 36 37  1  0
 28 38  1  0
 24 39  1  0
 39 40  1  0
 40 41  1  0
 41 42  1  0
 42 43  1  0
 43 44  1  0
 44 45  1  0
  8  3  1  0
 21  9  1  0
 38 26  1  0
 42 39  1  0
 20 14  1  0
 36 30  1  0
 44 42  1  0
 37 32  1  0
  1 46  1  0
  1 47  1  0
  2 48  1  0
  3 49  1  0
  4 50  1  0
  4 51  1  0
  5 52  1  0
  5 53  1  0
  6 54  1  0
  6 55  1  0
  7 56  1  0
  7 57  1  0
  8 58  1  0
  9 59  1  0
 10 60  1  0
 10 61  1  0
 11 62  1  0
 12 63  1  0
 13 64  1  0
 13 65  1  0
 13 66  1  0
 15 67  1  0
 15 68  1  0
 16 69  1  0
 16 70  1  0
 16 71  1  0
 17 72  1  0
 17 73  1  0
 18 74  1  0
 18 75  1  0
 19 76  1  0
 19 77  1  0
 20 78  1  0
 20 79  1  0
 21 80  1  0
 22 81  1  0
 22 82  1  0
 23 83  1  0
 24 84  1  0
 25 85  1  0
 25 86  1  0
 26 87  1  0
 27 88  1  0
 27 89  1  0
 28 90  1  0
 29 91  1  0
 29 92  1  0
 30 93  1  0
 31 94  1  0
 31 95  1  0
 32 96  1  0
 33 97  1  0
 33 98  1  0
 35 99  1  0
 35100  1  0
 36101  1  0
 37102  1  0
 37103  1  0
 38104  1  0
 39105  1  0
 40106  1  0
 44107  1  0
 45108  1  0
 45109  1  0
 45110  1  0
M  RAD  2  41   2  43   2
M  END
$$$$
