
     RDKit          2D

114119  0  0  0  0  0  0  0  0999 V2000
    0.6449   -7.5090    0.0000 C   0  0  0  0  0  0  0  0  0  0  0  0
   -0.7359   -6.9229    0.0000 C   0  0  0  0  0  0  0  0  0  0  0  0
   -1.9338   -7.8256    0.0000 C   0  0  0  0  0  0  0  0  0  0  0  0
   -3.1318   -8.7284    0.0000 C   0  0  0  0  0  0  0  0  0  0  0  0
   -2.8365   -6.6277    0.0000 C   0  0  0  0  0  0  0  0  0  0  0  0
   -1.3877   -6.2395    0.0000 C   0  0  0  0  0  0  0  0  0  0  0  0
   -0.2219   -5.2955    0.0000 C   0  0  0  0  0  0  0  0  0  0  0  0
    0.4590   -3.9590    0.0000 C   0  0  0  0  0  0  0  0  0  0  0  0
    0.5376   -2.4610    0.0000 C   0  0  0  0  0  0  0  0  0  0  0  0
   -0.0000   -1.0607    0.0000 C   0  0  0  0  0  0  0  0  0  0  0  0
    1.0607    0.0000    0.0000 C   0  0  0  0  0  0  0  0  0  0  0  0
    0.0000    1.0607    0.0000 C   0  0  0  0  0  0  0  0  0  0  0  0
   -1.0607    0.0000    0.0000 C   0  0  0  0  0  0  0  0  0  0  0  0
   -2.4610    0.5376    0.0000 C   0  0  0  0  0  0  0  0  0  0  0  0
   -3.9590    0.4590    0.0000 C   0  0  0  0  0  0  0  0  0  0  0  0
   -5.2955   -0.2219    0.0000 C   0  0  0  0  0  0  0  0  0  0  0  0
   -6.2395    0.9438    0.0000 C   0  0  0  0  0  0  0  0  0  0  0  0
   -5.6158   -1.7055    0.0000 C   0  0  0  0  0  0  0  0  0  0  0  0
   -5.9287   -2.8732    0.0000 C   0  0  0  0  0  0  0  0  0  0  0  0
   -5.7395   -4.0672    0.0000 C   0  0  0  0  0  0  0  0  0  0  0  0
   -5.5761   -5.5761    0.0000 C   0  0  0  0  0  0  0  0  0  0  0  0
   -4.3181   -6.3930    0.0000 C   0  0  0  0  0  0  0  0  0  0  0  0
   -7.0376   -5.2387    0.0000 C   0  0  0  0  0  0  0  0  0  0  0  0
   -7.1249   -6.7361    0.0000 Cl  0  0  0  0  0  0  0  0  0  0  0  0
   -7.9404   -4.0407    0.0000 C   0  0  0  0  0  0  0  0  0  0  0  0
   -7.8619   -2.5428    0.0000 C   0  0  0  0  0  0  0  0  0  0  0  0
   -8.9589   -1.5198    0.0000 C   0  0  0  0  0  0  0  0  0  0  0  0
  -10.0559   -0.4968    0.0000 C   0  0  0  0  0  0  0  0  0  0  0  0
  -11.1529    0.5262    0.0000 C   0  0  0  0  0  0  0  0  0  0  0  0
  -12.2500    1.5492    0.0000 N   0  0  0  0  0  0  0  0  0  0  0  0
  -11.9126    3.0108    0.0000 C   0  0  0  0  0  0  0  0  0  0  0  0
  -10.4510    2.6734    0.0000 C   0  0  0  0  0  0  0  0  0  0  0  0
  -13.3741    3.3482    0.0000 C   0  0  0  0  0  0  0  0  0  0  0  0
  -14.8357    3.6856    0.0000 C   0  0  0  0  0  0  0  0  0  0  0  0
  -13.0367    4.8098    0.0000 O   0  0  0  0  0  0  0  0  0  0  0  0
  -14.1337    5.8328    0.0000 C   0  0  0  0  0  0  0  0  0  0  0  0
  -15.2307    6.8558    0.0000 C   0  0  0  0  0  0  0  0  0  0  0  0
  -11.0789   -1.5938    0.0000 C   0  0  0  0  0  0  0  0  0  0  0  0
  -12.1759   -0.5708    0.0000 C   0  0  0  0  0  0  0  0  0  0  0  0
  -13.1989   -1.6678    0.0000 C   0  0  0  0  0  0  0  0  0  0  0  0
  -13.5364   -3.1294    0.0000 C   0  0  0  0  0  0  0  0  0  0  0  0
  -15.0343   -3.0509    0.0000 F   0  0  0  0  0  0  0  0  0  0  0  0
  -12.1019   -2.6908    0.0000 C   0  0  0  0  0  0  0  0  0  0  0  0
   -7.9359   -0.4227    0.0000 C   0  0  0  0  0  0  0  0  0  0  0  0
   -6.8389   -1.4457    0.0000 C   0  0  0  0  0  0  0  0  0  0  0  0
    1.8428   -6.6063    0.0000 H   0  0  0  0  0  0  0  0  0  0  0  0
    0.8277   -8.9978    0.0000 H   0  0  0  0  0  0  0  0  0  0  0  0
   -0.6387   -6.1317    0.0000 H   0  0  0  0  0  0  0  0  0  0  0  0
   -1.0311   -9.0236    0.0000 H   0  0  0  0  0  0  0  0  0  0  0  0
   -4.3297   -9.6311    0.0000 H   0  0  0  0  0  0  0  0  0  0  0  0
   -2.2291   -9.9263    0.0000 H   0  0  0  0  0  0  0  0  0  0  0  0
   -4.2975   -7.7845    0.0000 H   0  0  0  0  0  0  0  0  0  0  0  0
   -3.6091   -7.9134    0.0000 H   0  0  0  0  0  0  0  0  0  0  0  0
    0.0031   -6.8013    0.0000 H   0  0  0  0  0  0  0  0  0  0  0  0
   -1.2048   -7.7283    0.0000 H   0  0  0  0  0  0  0  0  0  0  0  0
    1.2453   -5.6074    0.0000 H   0  0  0  0  0  0  0  0  0  0  0  0
    0.3882   -6.6658    0.0000 H   0  0  0  0  0  0  0  0  0  0  0  0
    1.9263   -3.6471    0.0000 H   0  0  0  0  0  0  0  0  0  0  0  0
    1.5738   -4.9626    0.0000 H   0  0  0  0  0  0  0  0  0  0  0  0
    1.7511   -1.5794    0.0000 H   0  0  0  0  0  0  0  0  0  0  0  0
    1.9641   -2.9245    0.0000 H   0  0  0  0  0  0  0  0  0  0  0  0
   -0.6576    0.2875    0.0000 H   0  0  0  0  0  0  0  0  0  0  0  0
    2.1213    1.0607    0.0000 H   0  0  0  0  0  0  0  0  0  0  0  0
    2.2427   -0.9235    0.0000 H   0  0  0  0  0  0  0  0  0  0  0  0
   -0.7725    2.3465    0.0000 H   0  0  0  0  0  0  0  0  0  0  0  0
    1.0607    2.1213    0.0000 H   0  0  0  0  0  0  0  0  0  0  0  0
   -1.3725    1.4672    0.0000 H   0  0  0  0  0  0  0  0  0  0  0  0
   -2.9245    1.9641    0.0000 H   0  0  0  0  0  0  0  0  0  0  0  0
   -1.7339    1.8495    0.0000 H   0  0  0  0  0  0  0  0  0  0  0  0
   -4.9626    1.5738    0.0000 H   0  0  0  0  0  0  0  0  0  0  0  0
   -3.6471    1.9263    0.0000 H   0  0  0  0  0  0  0  0  0  0  0  0
   -7.1834    2.1095    0.0000 H   0  0  0  0  0  0  0  0  0  0  0  0
   -5.1975    2.0228    0.0000 H   0  0  0  0  0  0  0  0  0  0  0  0
   -7.7119    0.6577    0.0000 H   0  0  0  0  0  0  0  0  0  0  0  0
   -7.7395   -1.3876    0.0000 H   0  0  0  0  0  0  0  0  0  0  0  0
   -6.8013    0.0031    0.0000 H   0  0  0  0  0  0  0  0  0  0  0  0
   -8.0622   -3.2750    0.0000 H   0  0  0  0  0  0  0  0  0  0  0  0
   -8.0696   -2.4232    0.0000 H   0  0  0  0  0  0  0  0  0  0  0  0
   -7.5252   -5.3021    0.0000 H   0  0  0  0  0  0  0  0  0  0  0  0
   -5.2960   -5.3410    0.0000 H   0  0  0  0  0  0  0  0  0  0  0  0
   -6.4995   -6.7581    0.0000 H   0  0  0  0  0  0  0  0  0  0  0  0
   -4.3443   -7.8928    0.0000 H   0  0  0  0  0  0  0  0  0  0  0  0
   -5.5468   -7.2534    0.0000 H   0  0  0  0  0  0  0  0  0  0  0  0
   -8.3701   -5.9274    0.0000 H   0  0  0  0  0  0  0  0  0  0  0  0
   -8.9698   -5.1317    0.0000 H   0  0  0  0  0  0  0  0  0  0  0  0
   -9.4039   -3.7118    0.0000 H   0  0  0  0  0  0  0  0  0  0  0  0
   -9.1738   -3.2700    0.0000 H   0  0  0  0  0  0  0  0  0  0  0  0
   -9.9819   -2.6168    0.0000 H   0  0  0  0  0  0  0  0  0  0  0  0
   -9.1743    0.7168    0.0000 H   0  0  0  0  0  0  0  0  0  0  0  0
  -10.0039    1.4904    0.0000 H   0  0  0  0  0  0  0  0  0  0  0  0
  -12.4110   -0.2907    0.0000 H   0  0  0  0  0  0  0  0  0  0  0  0
  -13.6844    1.1107    0.0000 H   0  0  0  0  0  0  0  0  0  0  0  0
  -11.5751    4.4723    0.0000 H   0  0  0  0  0  0  0  0  0  0  0  0
   -8.9894    2.3359    0.0000 H   0  0  0  0  0  0  0  0  0  0  0  0
  -10.1136    4.1349    0.0000 H   0  0  0  0  0  0  0  0  0  0  0  0
  -10.0626    1.2245    0.0000 H   0  0  0  0  0  0  0  0  0  0  0  0
  -13.8872    1.9387    0.0000 H   0  0  0  0  0  0  0  0  0  0  0  0
  -16.2972    4.0231    0.0000 H   0  0  0  0  0  0  0  0  0  0  0  0
  -15.0445    5.1710    0.0000 H   0  0  0  0  0  0  0  0  0  0  0  0
  -15.1731    2.2241    0.0000 H   0  0  0  0  0  0  0  0  0  0  0  0
  -15.2828    4.8686    0.0000 H   0  0  0  0  0  0  0  0  0  0  0  0
  -13.1107    6.9298    0.0000 H   0  0  0  0  0  0  0  0  0  0  0  0
  -16.3278    7.8788    0.0000 H   0  0  0  0  0  0  0  0  0  0  0  0
  -14.2077    7.9528    0.0000 H   0  0  0  0  0  0  0  0  0  0  0  0
  -16.2537    5.7587    0.0000 H   0  0  0  0  0  0  0  0  0  0  0  0
  -10.2620   -2.8518    0.0000 H   0  0  0  0  0  0  0  0  0  0  0  0
  -13.3895    0.3108    0.0000 H   0  0  0  0  0  0  0  0  0  0  0  0
  -11.2943    0.6428    0.0000 H   0  0  0  0  0  0  0  0  0  0  0  0
  -14.5234   -0.9636    0.0000 H   0  0  0  0  0  0  0  0  0  0  0  0
  -13.3536   -4.6182    0.0000 H   0  0  0  0  0  0  0  0  0  0  0  0
  -11.3070   -3.9629    0.0000 H   0  0  0  0  0  0  0  0  0  0  0  0
   -7.7273    1.0627    0.0000 H   0  0  0  0  0  0  0  0  0  0  0  0
   -8.9000    0.7264    0.0000 H   0  0  0  0  0  0  0  0  0  0  0  0
   -6.3753   -0.0191    0.0000 H   0  0  0  0  0  0  0  0  0  0  0  0
  1  2  2  3
  2  3  1  0
  3  4  1  0
  3  5  1  0
  5  6  1  0
  6  7  1  0
  7  8  1  0
  8  9  1  0
  9 10  1  0
 10 11  1  0
 11 12  1  0
 12 13  1  0
 13 14  1  0
 14 15  1  0
 15 16  1  0
 16 17  1  0
 16 18  1  0
 18 19  1  0
 19 20  1  0
 20 21  1  0
 21 22  1  0
 21 23  1  0
 23 24  1  0
 23 25  1  0
 25 26  1  0
 26 27  1  0
 27 28  1  0
 28 29  1  0
 29 30  1  0
 30 31  1  0
 31 32  1  0
 31 33  1  0
 33 34  1  0
 33 35  1  0
 35 36  1  0
 36 37  1  0
 28 38  1  0
 38 39  1  0
 39 40  1  0
 40 41  1  0
 41 42  1  0
 41 43  1  0
 27 44  1  0
 44 45  1  0
 22  5  1  0
 45 26  1  0
 13 10  1  0
 45 16  1  0
 43 38  1  0
 43 40  1  0
  1 46  1  0
  1 47  1  0
  2 48  1  0
  3 49  1  0
  4 50  1  0
  4 51  1  0
  4 52  1  0
  5 53  1  0
  6 54  1  0
  6 55  1  0
  7 56  1  0
  7 57  1  0
  8 58  1  0
  8 59  1  0
  9 60  1  0
  9 61  1  0
 10 62  1  0
 11 63  1  0
 11 64  1  0
 12 65  1  0
 12 66  1  0
 13 67  1  0
 14 68  1  0
 14 69  1  0
 15 70  1  0
 15 71  1  0
 17 72  1  0
 17 73  1  0
 17 74  1  0
 18 75  1  0
 18 76  1  0
 19 77  1  0
 19 78  1  0
 20 79  1  0
 20 80  1  0
 21 81  1  0
 22 82  1  0
 22 83  1  0
 23 84  1  0
 25 85  1  0
 25 86  1  0
 26 87  1  0
 27 88  1  0
 28 89  1  0
 29 90  1  0
 29 91  1  0
 30 92  1  0
 31 93  1  0
 32 94  1  0
 32 95  1  0
 32 96  1  0
 33 97  1  0
 34 98  1  0
 34 99  1  0
 34100  1  0
 36101  1  0
 36102  1  0
 37103  1  0
 37104  1  0
 37105  1  0
 38106  1  0
 39107  1  0
 39108  1  0
 40109  1  0
 41110  1  0
 43111  1  0
 44112  1  0
 44113  1  0
 45114  1  0
M  END
$$$$
