
     RDKit          2D

 73 80  0  0  0  0  0  0  0  0999 V2000
   -2.0378   23.2839    0.0000 C   0  0  0  0  0  0  0  0  0  0  0  0
   -0.6675   22.6738    0.0000 C   0  0  0  0  0  0  0  0  0  0  0  0
   -0.5107   21.1821    0.0000 C   0  0  0  0  0  0  0  0  0  0  0  0
   -0.3539   19.6903    0.0000 C   0  0  0  0  0  0  0  0  0  0  0  0
   -0.1971   18.1985    0.0000 C   0  0  0  0  0  0  0  0  0  0  0  0
   -0.0403   16.7067    0.0000 C   0  0  0  0  0  0  0  0  0  0  0  0
    0.1165   15.2149    0.0000 C   0  0  0  0  0  0  0  0  0  0  0  0
    0.2733   13.7231    0.0000 C   0  0  0  0  0  0  0  0  0  0  0  0
    0.4301   12.2314    0.0000 C   0  0  0  0  0  0  0  0  0  0  0  0
    0.5869   10.7396    0.0000 C   0  0  0  0  0  0  0  0  0  0  0  0
    2.0832   10.6349    0.0000 C   0  0  0  0  0  0  0  0  0  0  0  0
    3.5251   10.2215    0.0000 N   0  0  0  0  0  0  0  0  0  0  0  0
    3.5775    8.7224    0.0000 C   0  0  0  0  0  0  0  0  0  0  0  0
    3.3170    7.2452    0.0000 C   0  0  0  0  0  0  0  0  0  0  0  0
    2.5670    5.9462    0.0000 C   0  0  0  0  0  0  0  0  0  0  0  0
    1.8170    4.6471    0.0000 C   0  0  0  0  0  0  0  0  0  0  0  0
    1.0670    3.3481    0.0000 C   0  0  0  0  0  0  0  0  0  0  0  0
    2.3660    2.5981    0.0000 N   0  0  0  0  0  0  0  0  0  0  0  0
    3.6651    3.3481    0.0000 O   0  0  0  0  0  0  0  0  0  0  0  0
    4.9641    2.5981    0.0000 C   0  0  0  0  0  0  0  0  0  0  0  0
    6.2631    1.8481    0.0000 C   0  0  0  0  0  0  0  0  0  0  0  0
    0.3170    2.0490    0.0000 C   0  0  0  0  0  0  0  0  0  0  0  0
    1.6160    1.2990    0.0000 C   0  0  0  0  0  0  0  0  0  0  0  0
    0.8660    0.0000    0.0000 C   0  0  0  0  0  0  0  0  0  0  0  0
   -0.4330    0.7500    0.0000 C   0  0  0  0  0  0  0  0  0  0  0  0
   -1.7321    0.0000    0.0000 C   0  0  0  0  0  0  0  0  0  0  0  0
   -3.0311   -0.7500    0.0000 C   0  0  0  0  0  0  0  0  0  0  0  0
   -1.7321   -1.5000    0.0000 C   0  0  0  0  0  0  0  0  0  0  0  0
   -0.4330   -0.7500    0.0000 C   0  0  0  0  0  0  0  0  0  0  0  0
    2.1679    8.2094    0.0000 C   0  0  0  0  0  0  0  0  0  0  0  0
    1.2444    9.3914    0.0000 C   0  0  0  0  0  0  0  0  0  0  0  0
   -2.1946   24.7757    0.0000 H   0  0  0  0  0  0  0  0  0  0  0  0
   -3.2513   22.4023    0.0000 H   0  0  0  0  0  0  0  0  0  0  0  0
    0.5461   23.5555    0.0000 H   0  0  0  0  0  0  0  0  0  0  0  0
   -2.0025   21.0253    0.0000 H   0  0  0  0  0  0  0  0  0  0  0  0
    0.9811   21.3389    0.0000 H   0  0  0  0  0  0  0  0  0  0  0  0
    1.1379   19.8471    0.0000 H   0  0  0  0  0  0  0  0  0  0  0  0
   -1.8457   19.5335    0.0000 H   0  0  0  0  0  0  0  0  0  0  0  0
   -1.6889   18.0417    0.0000 H   0  0  0  0  0  0  0  0  0  0  0  0
    1.2947   18.3553    0.0000 H   0  0  0  0  0  0  0  0  0  0  0  0
    1.4515   16.8635    0.0000 H   0  0  0  0  0  0  0  0  0  0  0  0
   -1.5321   16.5499    0.0000 H   0  0  0  0  0  0  0  0  0  0  0  0
   -1.3753   15.0581    0.0000 H   0  0  0  0  0  0  0  0  0  0  0  0
    1.6083   15.3717    0.0000 H   0  0  0  0  0  0  0  0  0  0  0  0
    1.7651   13.8799    0.0000 H   0  0  0  0  0  0  0  0  0  0  0  0
   -1.2185   13.5664    0.0000 H   0  0  0  0  0  0  0  0  0  0  0  0
   -1.0617   12.0746    0.0000 H   0  0  0  0  0  0  0  0  0  0  0  0
    1.7455   12.5351    0.0000 H   0  0  0  0  0  0  0  0  0  0  0  0
   -0.8550   10.3261    0.0000 H   0  0  0  0  0  0  0  0  0  0  0  0
    2.4780   11.9259    0.0000 H   0  0  0  0  0  0  0  0  0  0  0  0
    4.7071   11.1450    0.0000 H   0  0  0  0  0  0  0  0  0  0  0  0
    5.0738    8.6178    0.0000 H   0  0  0  0  0  0  0  0  0  0  0  0
    4.7265    6.7322    0.0000 H   0  0  0  0  0  0  0  0  0  0  0  0
    3.8660    5.1962    0.0000 H   0  0  0  0  0  0  0  0  0  0  0  0
    1.1862    6.5322    0.0000 H   0  0  0  0  0  0  0  0  0  0  0  0
    0.5179    5.3971    0.0000 H   0  0  0  0  0  0  0  0  0  0  0  0
    3.2589    4.2337    0.0000 H   0  0  0  0  0  0  0  0  0  0  0  0
   -0.2321    4.0981    0.0000 H   0  0  0  0  0  0  0  0  0  0  0  0
    2.8015    1.4638    0.0000 H   0  0  0  0  0  0  0  0  0  0  0  0
    4.2141    1.2990    0.0000 H   0  0  0  0  0  0  0  0  0  0  0  0
    5.7141    3.8971    0.0000 H   0  0  0  0  0  0  0  0  0  0  0  0
    7.5622    1.0981    0.0000 H   0  0  0  0  0  0  0  0  0  0  0  0
    5.5131    0.5490    0.0000 H   0  0  0  0  0  0  0  0  0  0  0  0
    7.0131    3.1471    0.0000 H   0  0  0  0  0  0  0  0  0  0  0  0
   -0.9821    2.7990    0.0000 H   0  0  0  0  0  0  0  0  0  0  0  0
    2.5863    0.5678    0.0000 H   0  0  0  0  0  0  0  0  0  0  0  0
    2.1698    1.8724    0.0000 H   0  0  0  0  0  0  0  0  0  0  0  0
    1.9267   -1.0607    0.0000 H   0  0  0  0  0  0  0  0  0  0  0  0
   -3.9953    0.3991    0.0000 H   0  0  0  0  0  0  0  0  0  0  0  0
   -3.9953   -1.8991    0.0000 H   0  0  0  0  0  0  0  0  0  0  0  0
   -1.7321   -3.0000    0.0000 H   0  0  0  0  0  0  0  0  0  0  0  0
    0.9699    7.3067    0.0000 H   0  0  0  0  0  0  0  0  0  0  0  0
   -0.0276    8.5965    0.0000 H   0  0  0  0  0  0  0  0  0  0  0  0
  1  2  2  3
  2  3  1  0
  3  4  1  0
  4  5  1  0
  5  6  1  0
  6  7  1  0
  7  8  1  0
  8  9  1  0
  9 10  1  0
 10 11  1  0
 11 12  1  0
 12 13  1  0
 13 14  1  0
 14 15  1  0
 15 16  1  0
 16 17  1  0
 17 18  1  0
 18 19  1  0
 19 20  1  0
 20 21  1  0
 17 22  1  0
 22 23  1  0
 23 24  1  0
 24 25  1  0
 25 26  1  1
 26 27  1  6
 27 28  1  0
 28 29  1  0
 14 30  1  0
 30 31  1  0
 31 10  1  0
 31 11  1  0
 30 13  1  0
 25 22  1  0
 28 26  1  0
 29 24  1  0
 29 25  1  0
 29 26  1  6
  1 32  1  0
  1 33  1  0
  2 34  1  0
  3 35  1  0
  3 36  1  0
  4 37  1  0
  4 38  1  0
  5 39  1  0
  5 40  1  0
  6 41  1  0
  6 42  1  0
  7 43  1  0
  7 44  1  0
  8 45  1  0
  8 46  1  0
  9 47  1  0
  9 48  1  0
 10 49  1  1
 11 50  1  6
 12 51  1  0
 13 52  1  1
 14 53  1  1
 15 54  1  0
 15 55  1  0
 16 56  1  0
 16 57  1  0
 17 58  1  6
 18 59  1  0
 20 60  1  0
 20 61  1  0
 21 62  1  0
 21 63  1  0
 21 64  1  0
 22 65  1  6
 23 66  1  0
 23 67  1  0
 24 68  1  1
 27 69  1  0
 27 70  1  0
 28 71  1  1
 30 72  1  1
 31 73  1  6
M  END
$$$$
