
     RDKit          2D

 80 86  0  0  0  0  0  0  0  0999 V2000
    7.9319    2.3579    0.0000 C   0  0  0  0  0  0  0  0  0  0  0  0
    6.5223    1.8449    0.0000 C   0  0  0  0  0  0  0  0  0  0  0  0
    6.2618    0.3676    0.0000 C   0  0  0  0  0  0  0  0  0  0  0  0
    6.0014   -1.1096    0.0000 C   0  0  0  0  0  0  0  0  0  0  0  0
    5.7409   -2.5868    0.0000 C   0  0  0  0  0  0  0  0  0  0  0  0
    6.8900   -3.5510    0.0000 C   0  0  0  0  0  0  0  0  0  0  0  0
    6.6295   -5.0282    0.0000 C   0  0  0  0  0  0  0  0  0  0  0  0
    4.7846    0.6281    0.0000 C   0  0  0  0  0  0  0  0  0  0  0  0
    3.3074    0.8886    0.0000 C   0  0  0  0  0  0  0  0  0  0  0  0
    3.5679    2.3658    0.0000 C   0  0  0  0  0  0  0  0  0  0  0  0
    3.8284    3.8430    0.0000 C   0  0  0  0  0  0  0  0  0  0  0  0
    4.0888    5.3202    0.0000 C   0  0  0  0  0  0  0  0  0  0  0  0
    1.8302    1.1491    0.0000 C   0  0  0  0  0  0  0  0  0  0  0  0
    1.1492    2.4856    0.0000 O   0  0  0  0  0  0  0  0  0  0  0  0
    0.8660    0.0000    0.0000 C   0  0  0  0  0  0  0  0  0  0  0  0
   -0.4330    0.7500    0.0000 C   0  0  0  0  0  0  0  0  0  0  0  0
   -1.9330    0.7500    0.0000 C   0  0  0  0  0  0  0  0  0  0  0  0
   -3.4330    0.7500    0.0000 C   0  0  0  0  0  0  0  0  0  0  0  0
   -4.9330    0.7500    0.0000 C   0  0  0  0  0  0  0  0  0  0  0  0
   -3.6735   -0.1728    0.0000 O   0  0  0  0  0  0  0  0  0  0  0  0
   -1.9330   -0.7500    0.0000 C   0  0  0  0  0  0  0  0  0  0  0  0
   -3.4330   -0.7500    0.0000 C   0  0  0  0  0  0  0  0  0  0  0  0
   -4.9330   -0.7500    0.0000 Si  0  0  0  0  0  4  0  0  0  0  0  0
   -5.9937   -1.8107    0.0000 O   0  0  0  0  0  0  0  0  0  0  0  0
   -4.8236   -2.1766    0.0000 C   0  0  0  0  0  0  0  0  0  0  0  0
   -6.1355   -2.9038    0.0000 F   0  0  0  0  0  0  0  0  0  0  0  0
   -6.2144   -1.6147    0.0000 F   0  0  0  0  0  0  0  0  0  0  0  0
   -4.3601   -3.6032    0.0000 C   0  0  0  0  0  0  0  0  0  0  0  0
   -3.1465   -4.4848    0.0000 C   0  0  0  0  0  0  0  0  0  0  0  0
   -1.6465   -4.4848    0.0000 C   0  0  0  0  0  0  0  0  0  0  0  0
   -0.4330   -3.6032    0.0000 C   0  0  0  0  0  0  0  0  0  0  0  0
    0.0305   -2.1766    0.0000 N   0  0  0  0  0  0  0  0  0  0  0  0
   -0.4330   -0.7500    0.0000 C   0  0  0  0  0  0  0  0  0  0  0  0
   -4.0282   -5.6984    0.0000 C   0  0  0  0  0  0  0  0  0  0  0  0
   -5.2417   -4.8167    0.0000 C   0  0  0  0  0  0  0  0  0  0  0  0
   -6.4553   -3.9350    0.0000 C   0  0  0  0  0  0  0  0  0  0  0  0
   -6.1234   -6.0302    0.0000 C   0  0  0  0  0  0  0  0  0  0  0  0
    8.1923    3.8351    0.0000 H   0  0  0  0  0  0  0  0  0  0  0  0
    9.0809    1.3937    0.0000 H   0  0  0  0  0  0  0  0  0  0  0  0
    5.4993    2.9419    0.0000 H   0  0  0  0  0  0  0  0  0  0  0  0
    7.7391    0.1072    0.0000 H   0  0  0  0  0  0  0  0  0  0  0  0
    4.5034   -1.0311    0.0000 H   0  0  0  0  0  0  0  0  0  0  0  0
    7.4786   -1.3700    0.0000 H   0  0  0  0  0  0  0  0  0  0  0  0
    4.3314   -3.0998    0.0000 H   0  0  0  0  0  0  0  0  0  0  0  0
    8.2995   -3.0379    0.0000 H   0  0  0  0  0  0  0  0  0  0  0  0
    6.3690   -6.5054    0.0000 H   0  0  0  0  0  0  0  0  0  0  0  0
    8.1067   -5.2886    0.0000 H   0  0  0  0  0  0  0  0  0  0  0  0
    5.1523   -4.7677    0.0000 H   0  0  0  0  0  0  0  0  0  0  0  0
    5.0451    2.1053    0.0000 H   0  0  0  0  0  0  0  0  0  0  0  0
    4.3460   -0.8063    0.0000 H   0  0  0  0  0  0  0  0  0  0  0  0
    3.0469   -0.5886    0.0000 H   0  0  0  0  0  0  0  0  0  0  0  0
    5.0451    2.1053    0.0000 H   0  0  0  0  0  0  0  0  0  0  0  0
    2.1334    2.8044    0.0000 H   0  0  0  0  0  0  0  0  0  0  0  0
    5.3263    3.7646    0.0000 H   0  0  0  0  0  0  0  0  0  0  0  0
    2.3512    4.1035    0.0000 H   0  0  0  0  0  0  0  0  0  0  0  0
    4.3493    6.7974    0.0000 H   0  0  0  0  0  0  0  0  0  0  0  0
    2.6116    5.5807    0.0000 H   0  0  0  0  0  0  0  0  0  0  0  0
    5.5660    5.0598    0.0000 H   0  0  0  0  0  0  0  0  0  0  0  0
    1.8302   -1.1491    0.0000 H   0  0  0  0  0  0  0  0  0  0  0  0
   -0.0448    2.1989    0.0000 H   0  0  0  0  0  0  0  0  0  0  0  0
   -1.9330    2.2500    0.0000 H   0  0  0  0  0  0  0  0  0  0  0  0
   -3.4330    2.2500    0.0000 H   0  0  0  0  0  0  0  0  0  0  0  0
   -5.9937    1.8107    0.0000 H   0  0  0  0  0  0  0  0  0  0  0  0
   -3.4330   -2.2500    0.0000 H   0  0  0  0  0  0  0  0  0  0  0  0
   -7.4426   -1.4224    0.0000 H   0  0  0  0  0  0  0  0  0  0  0  0
   -3.3759   -4.7352    0.0000 H   0  0  0  0  0  0  0  0  0  0  0  0
   -2.4656   -5.8214    0.0000 H   0  0  0  0  0  0  0  0  0  0  0  0
   -0.5495   -5.5079    0.0000 H   0  0  0  0  0  0  0  0  0  0  0  0
   -1.9327   -5.9573    0.0000 H   0  0  0  0  0  0  0  0  0  0  0  0
    1.0670   -3.6032    0.0000 H   0  0  0  0  0  0  0  0  0  0  0  0
    0.2010   -4.9626    0.0000 H   0  0  0  0  0  0  0  0  0  0  0  0
    1.5305   -2.1766    0.0000 H   0  0  0  0  0  0  0  0  0  0  0  0
   -4.7554   -7.0103    0.0000 H   0  0  0  0  0  0  0  0  0  0  0  0
   -2.9312   -6.7214    0.0000 H   0  0  0  0  0  0  0  0  0  0  0  0
   -7.6688   -3.0533    0.0000 H   0  0  0  0  0  0  0  0  0  0  0  0
   -7.4783   -5.0320    0.0000 H   0  0  0  0  0  0  0  0  0  0  0  0
   -5.7281   -2.6231    0.0000 H   0  0  0  0  0  0  0  0  0  0  0  0
   -7.0051   -7.2437    0.0000 H   0  0  0  0  0  0  0  0  0  0  0  0
   -7.4354   -5.3030    0.0000 H   0  0  0  0  0  0  0  0  0  0  0  0
   -5.0264   -7.0532    0.0000 H   0  0  0  0  0  0  0  0  0  0  0  0
  1  2  2  3
  2  3  1  0
  3  4  1  0
  4  5  1  0
  5  6  2  3
  6  7  1  0
  3  8  1  0
  8  9  1  0
  9 10  1  0
 10 11  1  0
 11 12  1  0
  9 13  1  0
 13 14  2  0
 13 15  1  0
 15 16  1  0
 16 17  1  0
 17 18  1  0
 18 19  1  0
 19 20  1  0
 21 20  1  6
 21 22  1  0
 22 23  1  0
 23 24  1  1
 23 25  1  0
 25 26  1  0
 25 27  1  0
 25 28  1  0
 28 29  1  0
 29 30  1  0
 30 31  1  0
 31 32  1  0
 33 32  1  1
 29 34  1  0
 34 35  1  0
 35 36  1  0
 35 37  1  0
 33 15  1  0
 33 16  1  0
 21 17  1  0
 35 28  1  0
 22 18  1  0
 23 19  1  0
 33 21  1  0
  1 38  1  0
  1 39  1  0
  2 40  1  0
  3 41  1  1
  4 42  1  0
  4 43  1  0
  5 44  1  0
  6 45  1  0
  7 46  1  0
  7 47  1  0
  7 48  1  0
  8 49  1  0
  8 50  1  0
  9 51  1  6
 10 52  1  0
 10 53  1  0
 11 54  1  0
 11 55  1  0
 12 56  1  0
 12 57  1  0
 12 58  1  0
 15 59  1  1
 16 60  1  6
 17 61  1  6
 18 62  1  1
 19 63  1  6
 22 64  1  1
 24 65  1  0
 28 66  1  6
 29 67  1  6
 30 68  1  0
 30 69  1  0
 31 70  1  0
 31 71  1  0
 32 72  1  0
 34 73  1  0
 34 74  1  0
 36 75  1  0
 36 76  1  0
 36 77  1  0
 37 78  1  0
 37 79  1  0
 37 80  1  0
M  END
$$$$
