
     RDKit          3D

 20 20  0  0  0  0  0  0  0  0999 V2000
    9.9075  -28.1440   -6.7160 O   0  0  0  0  0  0  0  0  0  0  0  0
   11.1097  -27.7271   -6.2779 C   0  0  0  0  0  0  0  0  0  0  0  0
   11.3118  -27.6475   -4.9152 C   0  0  0  0  0  0  0  0  0  0  0  0
   10.9178  -26.5135   -4.2306 C   0  0  0  0  0  0  0  0  0  0  0  0
   11.4254  -25.2773   -4.5930 C   0  0  0  0  0  0  0  0  0  0  0  0
   12.2732  -27.9741   -7.0041 C   0  0  0  0  0  0  0  0  0  0  0  0
   11.1949  -26.3898   -4.3436 O   0  0  0  0  0  0  0  0  0  0  0  0
   12.5414  -29.2470   -7.4883 C   0  0  0  0  0  0  0  0  0  0  0  0
   10.2262  -25.9449   -3.1980 C   0  0  0  0  0  0  0  0  0  0  0  0
   13.3275  -29.4056   -8.6126 C   0  0  0  0  0  0  0  0  0  0  0  0
   12.0052  -29.0002   -8.6550 C   0  0  0  0  0  0  0  0  0  0  0  0
    9.6384  -26.5111   -5.1619 C   0  0  0  0  0  0  0  0  0  0  0  0
   10.5225  -26.5905   -4.0206 N   0  0  0  0  0  0  0  0  0  0  0  0
    8.8249  -27.2571   -4.1903 C   0  0  0  0  0  0  0  0  0  0  0  0
    9.3283  -28.4989   -3.5732 C   0  0  0  0  0  0  0  0  0  0  0  0
   12.8368  -28.0399   -6.6679 C   0  0  0  0  0  0  0  0  0  0  0  0
   13.3105  -28.6321   -6.1263 C   0  0  0  0  0  0  0  0  0  0  0  0
   10.6724  -29.1390   -3.7436 S   0  0  0  0  0  3  0  0  0  0  0  0
   10.8633  -28.2949   -2.6139 N   0  0  0  0  0  2  0  0  0  0  0  0
   12.0997  -26.7567   -7.5580 O   0  0  0  0  0  0  0  0  0  0  0  0
  2  1  1  0
  3  2  1  0
  4  3  1  0
  6  2  1  0
  7  4  2  0
  8  6  1  0
  9  5  1  0
 10  8  1  0
 11  8  1  0
 11 10  1  0
 13  4  1  0
 13  9  1  0
 14 12  1  0
 15 14  1  0
 16  6  1  0
 17 16  2  0
 18  3  1  0
 18 15  1  0
 19 15  1  0
 20  6  1  0
M  RAD  2  18   2  19   2
M  END
$$$$
