
     RDKit          2D

 48 52  0  0  0  0  0  0  0  0999 V2000
  -12.3569   -4.5324    0.0000 N   0  0  0  0  0  0  0  0  0  0  0  0
  -10.8651   -4.6892    0.0000 C   0  0  0  0  0  0  0  0  0  0  0  0
   -9.3733   -4.8460    0.0000 C   0  0  0  0  0  0  0  0  0  0  0  0
   -7.8815   -5.0028    0.0000 C   0  0  0  0  0  0  0  0  0  0  0  0
   -6.3898   -5.1596    0.0000 C   0  0  0  0  0  0  0  0  0  0  0  0
   -6.2851   -6.6560    0.0000 C   0  0  0  0  0  0  0  0  0  0  0  0
   -5.0416   -5.8172    0.0000 C   0  0  0  0  0  0  0  0  0  0  0  0
   -4.1599   -4.6036    0.0000 C   0  0  0  0  0  0  0  0  0  0  0  0
   -3.2782   -3.3901    0.0000 C   0  0  0  0  0  0  0  0  0  0  0  0
   -2.0647   -4.2718    0.0000 C   0  0  0  0  0  0  0  0  0  0  0  0
   -1.1830   -3.0583    0.0000 C   0  0  0  0  0  0  0  0  0  0  0  0
   -2.3965   -2.1766    0.0000 C   0  0  0  0  0  0  0  0  0  0  0  0
   -1.9330   -0.7500    0.0000 C   0  0  0  0  0  0  0  0  0  0  0  0
   -1.9330    0.7500    0.0000 C   0  0  0  0  0  0  0  0  0  0  0  0
   -0.4330    0.7500    0.0000 C   0  0  0  0  0  0  0  0  0  0  0  0
    0.8660    0.0000    0.0000 C   0  0  0  0  0  0  0  0  0  0  0  0
   -0.4330   -0.7500    0.0000 C   0  0  0  0  0  0  0  0  0  0  0  0
    0.0305   -2.1766    0.0000 C   0  0  0  0  0  0  0  0  0  0  0  0
    1.4008   -1.5665    0.0000 C   0  0  0  0  0  0  0  0  0  0  0  0
    1.6735   -0.8174    0.0000 O   0  0  0  0  0  0  0  0  0  0  0  0
    2.6144   -2.4482    0.0000 O   0  0  0  0  0  0  0  0  0  0  0  0
  -12.9670   -3.1621    0.0000 H   0  0  0  0  0  0  0  0  0  0  0  0
  -13.2386   -5.7460    0.0000 H   0  0  0  0  0  0  0  0  0  0  0  0
  -11.0219   -6.1810    0.0000 H   0  0  0  0  0  0  0  0  0  0  0  0
  -10.7083   -3.1974    0.0000 H   0  0  0  0  0  0  0  0  0  0  0  0
   -9.5301   -6.3378    0.0000 H   0  0  0  0  0  0  0  0  0  0  0  0
   -9.2165   -3.3542    0.0000 H   0  0  0  0  0  0  0  0  0  0  0  0
   -8.1853   -6.3182    0.0000 H   0  0  0  0  0  0  0  0  0  0  0  0
   -7.7248   -3.5110    0.0000 H   0  0  0  0  0  0  0  0  0  0  0  0
   -6.1786   -3.8262    0.0000 H   0  0  0  0  0  0  0  0  0  0  0  0
   -5.6750   -8.0263    0.0000 H   0  0  0  0  0  0  0  0  0  0  0  0
   -7.5454   -7.1398    0.0000 H   0  0  0  0  0  0  0  0  0  0  0  0
   -3.9996   -6.8962    0.0000 H   0  0  0  0  0  0  0  0  0  0  0  0
   -3.5121   -5.2077    0.0000 H   0  0  0  0  0  0  0  0  0  0  0  0
   -5.1472   -3.6829    0.0000 H   0  0  0  0  0  0  0  0  0  0  0  0
   -4.4917   -2.5084    0.0000 H   0  0  0  0  0  0  0  0  0  0  0  0
   -0.8512   -5.1535    0.0000 H   0  0  0  0  0  0  0  0  0  0  0  0
   -2.4941   -5.0465    0.0000 H   0  0  0  0  0  0  0  0  0  0  0  0
   -0.1224   -4.1189    0.0000 H   0  0  0  0  0  0  0  0  0  0  0  0
   -3.7330   -1.4956    0.0000 H   0  0  0  0  0  0  0  0  0  0  0  0
   -3.4145   -0.5153    0.0000 H   0  0  0  0  0  0  0  0  0  0  0  0
   -1.9330    2.2500    0.0000 H   0  0  0  0  0  0  0  0  0  0  0  0
   -3.4330    0.7500    0.0000 H   0  0  0  0  0  0  0  0  0  0  0  0
   -0.0448    2.1989    0.0000 H   0  0  0  0  0  0  0  0  0  0  0  0
    1.8302    1.1491    0.0000 H   0  0  0  0  0  0  0  0  0  0  0  0
    1.5110   -0.4685    0.0000 H   0  0  0  0  0  0  0  0  0  0  0  0
    0.7805   -3.4756    0.0000 H   0  0  0  0  0  0  0  0  0  0  0  0
    3.9847   -1.8381    0.0000 H   0  0  0  0  0  0  0  0  0  0  0  0
  1  2  1  0
  2  3  1  0
  3  4  1  0
  4  5  1  0
  5  6  1  0
  6  7  1  0
  7  8  1  0
  8  9  1  0
  9 10  1  0
 10 11  1  0
 11 12  1  0
 12 13  1  0
 13 14  1  0
 14 15  1  0
 15 16  1  0
 16 17  1  0
 17 18  1  0
 18 19  1  0
 19 20  2  0
 19 21  1  0
  7  5  1  0
 12  9  1  0
 17 13  1  0
 18 11  1  0
 17 15  1  0
  1 22  1  0
  1 23  1  0
  2 24  1  0
  2 25  1  0
  3 26  1  0
  3 27  1  0
  4 28  1  0
  4 29  1  0
  5 30  1  0
  6 31  1  0
  6 32  1  0
  7 33  1  0
  8 34  1  0
  8 35  1  0
  9 36  1  0
 10 37  1  0
 10 38  1  0
 11 39  1  0
 12 40  1  0
 13 41  1  0
 14 42  1  0
 14 43  1  0
 15 44  1  0
 16 45  1  0
 16 46  1  0
 18 47  1  0
 21 48  1  0
M  END
$$$$
