
     RDKit          2D

 51 53  0  0  0  0  0  0  0  0999 V2000
   -1.5362   -7.9919    0.0000 C   0  0  0  0  0  0  0  0  0  0  0  0
   -2.7755   -8.8369    0.0000 C   0  0  0  0  0  0  0  0  0  0  0  0
   -4.0149   -9.6819    0.0000 C   0  0  0  0  0  0  0  0  0  0  0  0
   -5.2543  -10.5268    0.0000 C   0  0  0  0  0  0  0  0  0  0  0  0
   -4.8599   -8.4425    0.0000 N   0  0  0  0  0  0  0  0  0  0  0  0
   -4.2091   -7.0910    0.0000 C   0  0  0  0  0  0  0  0  0  0  0  0
   -3.5582   -5.7396    0.0000 C   0  0  0  0  0  0  0  0  0  0  0  0
   -4.9097   -5.0888    0.0000 O   0  0  0  0  0  0  0  0  0  0  0  0
   -2.9074   -4.3881    0.0000 C   0  0  0  0  0  0  0  0  0  0  0  0
   -2.2566   -3.0367    0.0000 C   0  0  0  0  0  0  0  0  0  0  0  0
   -1.6058   -1.6852    0.0000 C   0  0  0  0  0  0  0  0  0  0  0  0
   -3.0682   -1.3515    0.0000 N   0  0  0  0  0  0  0  0  0  0  0  0
   -3.7190    0.0000    0.0000 C   0  0  0  0  0  0  0  0  0  0  0  0
   -3.7190    1.5000    0.0000 N   0  0  0  0  0  0  0  0  0  0  0  0
   -2.5462    2.4352    0.0000 C   0  0  0  0  0  0  0  0  0  0  0  0
   -1.0838    2.1015    0.0000 C   0  0  0  0  0  0  0  0  0  0  0  0
   -0.4330    0.7500    0.0000 C   0  0  0  0  0  0  0  0  0  0  0  0
   -1.7615    1.0028    0.0000 C   0  0  0  0  0  0  0  0  0  0  0  0
   -2.6317    0.8042    0.0000 C   0  0  0  0  0  0  0  0  0  0  0  0
    0.8660    0.0000    0.0000 C   0  0  0  0  0  0  0  0  0  0  0  0
    1.8302    1.1491    0.0000 I   0  0  0  0  0  0  0  0  0  0  0  0
   -0.4330   -0.7500    0.0000 N   0  0  0  0  0  0  0  0  0  0  0  0
   -0.2968   -7.1469    0.0000 H   0  0  0  0  0  0  0  0  0  0  0  0
   -0.6912   -9.2313    0.0000 H   0  0  0  0  0  0  0  0  0  0  0  0
   -2.2238   -6.6588    0.0000 H   0  0  0  0  0  0  0  0  0  0  0  0
   -2.9587   -8.0610    0.0000 H   0  0  0  0  0  0  0  0  0  0  0  0
   -1.9306  -10.0762    0.0000 H   0  0  0  0  0  0  0  0  0  0  0  0
   -3.1699  -10.9212    0.0000 H   0  0  0  0  0  0  0  0  0  0  0  0
   -6.4936  -11.3718    0.0000 H   0  0  0  0  0  0  0  0  0  0  0  0
   -4.4093  -11.7662    0.0000 H   0  0  0  0  0  0  0  0  0  0  0  0
   -6.2440   -9.3997    0.0000 H   0  0  0  0  0  0  0  0  0  0  0  0
   -6.3582   -8.3714    0.0000 H   0  0  0  0  0  0  0  0  0  0  0  0
   -5.6298   -6.6098    0.0000 H   0  0  0  0  0  0  0  0  0  0  0  0
   -3.4540   -7.3468    0.0000 H   0  0  0  0  0  0  0  0  0  0  0  0
   -2.1375   -6.2208    0.0000 H   0  0  0  0  0  0  0  0  0  0  0  0
   -6.2428   -5.7764    0.0000 H   0  0  0  0  0  0  0  0  0  0  0  0
   -1.5560   -5.0390    0.0000 H   0  0  0  0  0  0  0  0  0  0  0  0
   -4.2589   -3.7373    0.0000 H   0  0  0  0  0  0  0  0  0  0  0  0
   -3.6773   -2.5555    0.0000 H   0  0  0  0  0  0  0  0  0  0  0  0
   -0.9051   -3.6875    0.0000 H   0  0  0  0  0  0  0  0  0  0  0  0
   -0.4330   -2.6205    0.0000 H   0  0  0  0  0  0  0  0  0  0  0  0
   -4.1394   -2.4015    0.0000 H   0  0  0  0  0  0  0  0  0  0  0  0
   -3.5962    3.5064    0.0000 H   0  0  0  0  0  0  0  0  0  0  0  0
   -2.2418    3.9040    0.0000 H   0  0  0  0  0  0  0  0  0  0  0  0
   -0.9010    3.5903    0.0000 H   0  0  0  0  0  0  0  0  0  0  0  0
    0.4083    2.2545    0.0000 H   0  0  0  0  0  0  0  0  0  0  0  0
   -0.5558    2.7564    0.0000 H   0  0  0  0  0  0  0  0  0  0  0  0
   -2.2566    3.0367    0.0000 H   0  0  0  0  0  0  0  0  0  0  0  0
   -3.0682    2.8515    0.0000 H   0  0  0  0  0  0  0  0  0  0  0  0
   -4.4063    2.0292    0.0000 H   0  0  0  0  0  0  0  0  0  0  0  0
    1.8302   -1.1491    0.0000 H   0  0  0  0  0  0  0  0  0  0  0  0
  1  2  1  0
  2  3  1  0
  3  4  1  0
  3  5  1  0
  5  6  1  0
  6  7  1  0
  7  8  1  0
  7  9  1  0
  9 10  1  0
 10 11  1  0
 11 12  1  0
 12 13  1  0
 13 14  2  0
 14 15  1  0
 15 16  1  0
 16 17  1  0
 17 18  1  0
 18 19  1  0
 17 20  1  0
 20 21  1  0
 20 22  1  0
 22 11  1  0
 19 13  1  0
 22 17  1  0
  1 23  1  0
  1 24  1  0
  1 25  1  0
  2 26  1  0
  2 27  1  0
  3 28  1  0
  4 29  1  0
  4 30  1  0
  4 31  1  0
  5 32  1  0
  6 33  1  0
  6 34  1  0
  7 35  1  0
  8 36  1  0
  9 37  1  0
  9 38  1  0
 10 39  1  0
 10 40  1  0
 11 41  1  0
 12 42  1  0
 15 43  1  0
 15 44  1  0
 16 45  1  0
 16 46  1  0
 18 47  1  0
 18 48  1  0
 19 49  1  0
 19 50  1  0
 20 51  1  0
M  END
$$$$
