
     RDKit          2D

105114  0  0  0  0  0  0  0  0999 V2000
   -3.0062   -9.4559    0.0000 C   0  0  0  0  0  0  0  0  0  0  0  0
   -3.4840   -8.0340    0.0000 C   0  0  0  0  0  0  0  0  0  0  0  0
   -3.9617   -6.6121    0.0000 C   0  0  0  0  0  0  0  0  0  0  0  0
   -4.4394   -5.1902    0.0000 C   0  0  0  0  0  0  0  0  0  0  0  0
   -5.3747   -4.0175    0.0000 C   0  0  0  0  0  0  0  0  0  0  0  0
   -4.8267   -2.6212    0.0000 C   0  0  0  0  0  0  0  0  0  0  0  0
   -6.2969   -2.3240    0.0000 O   0  0  0  0  0  0  0  0  0  0  0  0
   -3.3434   -2.3976    0.0000 C   0  0  0  0  0  0  0  0  0  0  0  0
   -2.4082   -3.5704    0.0000 C   0  0  0  0  0  0  0  0  0  0  0  0
   -2.9562   -4.9667    0.0000 C   0  0  0  0  0  0  0  0  0  0  0  0
   -1.8048   -5.9281    0.0000 O   0  0  0  0  0  0  0  0  0  0  0  0
   -0.3048   -5.9245    0.0000 C   0  0  0  0  0  0  0  0  0  0  0  0
    0.8419   -4.9576    0.0000 C   0  0  0  0  0  0  0  0  0  0  0  0
    1.4394   -6.3335    0.0000 C   0  0  0  0  0  0  0  0  0  0  0  0
    2.0368   -7.7094    0.0000 O   0  0  0  0  0  0  0  0  0  0  0  0
    1.1439   -8.9147    0.0000 C   0  0  0  0  0  0  0  0  0  0  0  0
   -0.3464   -8.7441    0.0000 C   0  0  0  0  0  0  0  0  0  0  0  0
   -1.5517   -7.8513    0.0000 N   0  0  0  0  0  0  0  0  0  0  0  0
    0.2511  -10.1200    0.0000 C   0  0  0  0  0  0  0  0  0  0  0  0
    0.8485  -11.4959    0.0000 N   0  0  0  0  0  0  0  0  0  0  0  0
    1.7413  -10.2906    0.0000 C   0  0  0  0  0  0  0  0  0  0  0  0
    3.2316  -10.4612    0.0000 C   0  0  0  0  0  0  0  0  0  0  0  0
    4.7219  -10.6317    0.0000 C   0  0  0  0  0  0  0  0  0  0  0  0
    3.0610  -11.9514    0.0000 C   0  0  0  0  0  0  0  0  0  0  0  0
    2.8905  -13.4417    0.0000 C   0  0  0  0  0  0  0  0  0  0  0  0
    1.0989   -3.4798    0.0000 C   0  0  0  0  0  0  0  0  0  0  0  0
    2.4409   -4.1497    0.0000 C   0  0  0  0  0  0  0  0  0  0  0  0
    1.1998   -1.4624    0.0000 C   0  0  0  0  0  0  0  0  0  0  0  0
    0.2646   -2.6351    0.0000 C   0  0  0  0  0  0  0  0  0  0  0  0
    1.6160   -3.2860    0.0000 O   0  0  0  0  0  0  0  0  0  0  0  0
   -1.2354   -2.6351    0.0000 C   0  0  0  0  0  0  0  0  0  0  0  0
   -2.1707   -1.4624    0.0000 C   0  0  0  0  0  0  0  0  0  0  0  0
   -1.7321    0.0000    0.0000 C   0  0  0  0  0  0  0  0  0  0  0  0
   -0.4330    0.7500    0.0000 C   0  0  0  0  0  0  0  0  0  0  0  0
    0.8660    0.0000    0.0000 C   0  0  0  0  0  0  0  0  0  0  0  0
   -0.4330   -0.7500    0.0000 C   0  0  0  0  0  0  0  0  0  0  0  0
   -0.4330   -2.2500    0.0000 C   0  0  0  0  0  0  0  0  0  0  0  0
   -0.7449   -3.7172    0.0000 C   0  0  0  0  0  0  0  0  0  0  0  0
    0.5542   -4.4672    0.0000 C   0  0  0  0  0  0  0  0  0  0  0  0
    1.6689   -3.4635    0.0000 C   0  0  0  0  0  0  0  0  0  0  0  0
    1.0588   -2.0932    0.0000 C   0  0  0  0  0  0  0  0  0  0  0  0
    2.4854   -1.6297    0.0000 C   0  0  0  0  0  0  0  0  0  0  0  0
    3.9119   -1.1662    0.0000 C   0  0  0  0  0  0  0  0  0  0  0  0
    2.0218   -0.2031    0.0000 C   0  0  0  0  0  0  0  0  0  0  0  0
    1.5583    1.2235    0.0000 C   0  0  0  0  0  0  0  0  0  0  0  0
   -2.5285  -10.8778    0.0000 H   0  0  0  0  0  0  0  0  0  0  0  0
   -4.4281   -9.9337    0.0000 H   0  0  0  0  0  0  0  0  0  0  0  0
   -1.5844   -8.9782    0.0000 H   0  0  0  0  0  0  0  0  0  0  0  0
   -2.2199   -7.2264    0.0000 H   0  0  0  0  0  0  0  0  0  0  0  0
   -4.9059   -8.5118    0.0000 H   0  0  0  0  0  0  0  0  0  0  0  0
   -2.4631   -6.6758    0.0000 H   0  0  0  0  0  0  0  0  0  0  0  0
   -5.3836   -7.0899    0.0000 H   0  0  0  0  0  0  0  0  0  0  0  0
   -5.7568   -5.9076    0.0000 H   0  0  0  0  0  0  0  0  0  0  0  0
   -6.3672   -5.1422    0.0000 H   0  0  0  0  0  0  0  0  0  0  0  0
   -6.6546   -3.2353    0.0000 H   0  0  0  0  0  0  0  0  0  0  0  0
   -4.9723   -1.1283    0.0000 H   0  0  0  0  0  0  0  0  0  0  0  0
   -6.7746   -0.9021    0.0000 H   0  0  0  0  0  0  0  0  0  0  0  0
   -3.9432   -1.0228    0.0000 H   0  0  0  0  0  0  0  0  0  0  0  0
   -1.4527   -4.7267    0.0000 H   0  0  0  0  0  0  0  0  0  0  0  0
   -1.6627   -5.7263    0.0000 H   0  0  0  0  0  0  0  0  0  0  0  0
   -0.9037   -7.2998    0.0000 H   0  0  0  0  0  0  0  0  0  0  0  0
    0.5726   -7.1411    0.0000 H   0  0  0  0  0  0  0  0  0  0  0  0
    2.2404   -5.5001    0.0000 H   0  0  0  0  0  0  0  0  0  0  0  0
    2.8153   -5.7361    0.0000 H   0  0  0  0  0  0  0  0  0  0  0  0
    0.2489   -7.2461    0.0000 H   0  0  0  0  0  0  0  0  0  0  0  0
   -2.7421   -8.7639    0.0000 H   0  0  0  0  0  0  0  0  0  0  0  0
    0.4975  -12.9543    0.0000 H   0  0  0  0  0  0  0  0  0  0  0  0
    3.4022   -8.9709    0.0000 H   0  0  0  0  0  0  0  0  0  0  0  0
    6.2121  -10.8023    0.0000 H   0  0  0  0  0  0  0  0  0  0  0  0
    4.8924   -9.1415    0.0000 H   0  0  0  0  0  0  0  0  0  0  0  0
    4.7342  -12.1317    0.0000 H   0  0  0  0  0  0  0  0  0  0  0  0
    4.5194  -12.3024    0.0000 H   0  0  0  0  0  0  0  0  0  0  0  0
    1.5738  -12.1466    0.0000 H   0  0  0  0  0  0  0  0  0  0  0  0
    2.7199  -14.9320    0.0000 H   0  0  0  0  0  0  0  0  0  0  0  0
    4.3807  -13.6123    0.0000 H   0  0  0  0  0  0  0  0  0  0  0  0
    1.3905  -13.4541    0.0000 H   0  0  0  0  0  0  0  0  0  0  0  0
    2.1256   -2.3862    0.0000 H   0  0  0  0  0  0  0  0  0  0  0  0
    3.7830   -4.8197    0.0000 H   0  0  0  0  0  0  0  0  0  0  0  0
    3.4157   -3.0097    0.0000 H   0  0  0  0  0  0  0  0  0  0  0  0
    2.1156   -5.6140    0.0000 H   0  0  0  0  0  0  0  0  0  0  0  0
    2.6477   -1.0704    0.0000 H   0  0  0  0  0  0  0  0  0  0  0  0
    0.6566   -4.0830    0.0000 H   0  0  0  0  0  0  0  0  0  0  0  0
    3.0230   -2.7660    0.0000 H   0  0  0  0  0  0  0  0  0  0  0  0
   -1.0973   -4.1288    0.0000 H   0  0  0  0  0  0  0  0  0  0  0  0
   -3.4407   -0.6643    0.0000 H   0  0  0  0  0  0  0  0  0  0  0  0
   -3.2209    0.1828    0.0000 H   0  0  0  0  0  0  0  0  0  0  0  0
   -0.4330    2.2500    0.0000 H   0  0  0  0  0  0  0  0  0  0  0  0
    2.3214    0.3630    0.0000 H   0  0  0  0  0  0  0  0  0  0  0  0
   -1.9184   -2.4588    0.0000 H   0  0  0  0  0  0  0  0  0  0  0  0
   -2.2412   -3.6127    0.0000 H   0  0  0  0  0  0  0  0  0  0  0  0
   -1.1834   -5.1517    0.0000 H   0  0  0  0  0  0  0  0  0  0  0  0
   -0.5950   -5.4313    0.0000 H   0  0  0  0  0  0  0  0  0  0  0  0
    1.5382   -5.5993    0.0000 H   0  0  0  0  0  0  0  0  0  0  0  0
    2.9269   -4.2804    0.0000 H   0  0  0  0  0  0  0  0  0  0  0  0
    1.3316   -4.9251    0.0000 H   0  0  0  0  0  0  0  0  0  0  0  0
    0.9281   -0.5989    0.0000 H   0  0  0  0  0  0  0  0  0  0  0  0
    3.2803   -2.9017    0.0000 H   0  0  0  0  0  0  0  0  0  0  0  0
    5.3385   -0.7026    0.0000 H   0  0  0  0  0  0  0  0  0  0  0  0
    3.6258    0.3063    0.0000 H   0  0  0  0  0  0  0  0  0  0  0  0
    4.3755   -2.5927    0.0000 H   0  0  0  0  0  0  0  0  0  0  0  0
    3.3813    0.4309    0.0000 H   0  0  0  0  0  0  0  0  0  0  0  0
    0.6624   -0.8371    0.0000 H   0  0  0  0  0  0  0  0  0  0  0  0
    1.0948    2.6501    0.0000 H   0  0  0  0  0  0  0  0  0  0  0  0
    2.9849    1.6870    0.0000 H   0  0  0  0  0  0  0  0  0  0  0  0
    0.0620    1.1189    0.0000 H   0  0  0  0  0  0  0  0  0  0  0  0
  1  2  1  0
  2  3  1  0
  3  4  1  0
  4  5  1  0
  5  6  1  0
  6  7  1  0
  6  8  1  0
  8  9  1  0
  9 10  1  0
 10 11  1  0
 11 12  1  0
 12 13  1  0
 13 14  1  0
 14 15  1  0
 15 16  1  0
 16 17  1  0
 17 18  2  3
 17 19  1  0
 19 20  1  0
 20 21  1  0
 21 22  1  0
 22 23  1  0
 22 24  1  0
 24 25  1  0
 13 26  1  0
 26 27  1  0
 26 28  1  0
 28 29  1  0
 29 30  1  0
 29 31  1  0
 31 32  1  0
 32 33  1  0
 33 34  1  0
 34 35  1  0
 35 36  1  0
 36 37  1  0
 37 38  1  0
 38 39  1  0
 39 40  1  0
 40 41  1  0
 41 42  1  0
 42 43  1  0
 42 44  1  0
 44 45  1  0
 10  4  1  0
 19 16  1  0
 35 28  1  0
 41 37  1  0
 32  8  1  0
 36 33  1  0
 31  9  1  0
 36 34  1  0
 21 16  1  0
 21 19  1  0
  1 46  1  0
  1 47  1  0
  1 48  1  0
  2 49  1  0
  2 50  1  0
  3 51  1  0
  3 52  1  0
  4 53  1  0
  5 54  1  0
  5 55  1  0
  6 56  1  0
  7 57  1  0
  8 58  1  0
  9 59  1  0
 10 60  1  0
 12 61  1  0
 12 62  1  0
 13 63  1  0
 14 64  1  0
 14 65  1  0
 18 66  1  0
 20 67  1  0
 22 68  1  0
 23 69  1  0
 23 70  1  0
 23 71  1  0
 24 72  1  0
 24 73  1  0
 25 74  1  0
 25 75  1  0
 25 76  1  0
 26 77  1  0
 27 78  1  0
 27 79  1  0
 27 80  1  0
 28 81  1  0
 29 82  1  0
 30 83  1  0
 31 84  1  0
 32 85  1  0
 33 86  1  0
 34 87  1  0
 35 88  1  0
 37 89  1  0
 38 90  1  0
 38 91  1  0
 39 92  1  0
 39 93  1  0
 40 94  1  0
 40 95  1  0
 41 96  1  0
 42 97  1  0
 43 98  1  0
 43 99  1  0
 43100  1  0
 44101  1  0
 44102  1  0
 45103  1  0
 45104  1  0
 45105  1  0
M  END
$$$$
