
     RDKit          2D

 86 90  0  0  0  0  0  0  0  0999 V2000
    1.4041    2.5871    0.0000 C   0  0  0  0  0  0  0  0  0  0  0  0
   -0.0448    2.1989    0.0000 C   0  0  0  0  0  0  0  0  0  0  0  0
   -1.1054    3.2595    0.0000 C   0  0  0  0  0  0  0  0  0  0  0  0
   -2.1661    4.3202    0.0000 C   0  0  0  0  0  0  0  0  0  0  0  0
   -3.2268    5.3809    0.0000 C   0  0  0  0  0  0  0  0  0  0  0  0
   -4.4555    4.5205    0.0000 C   0  0  0  0  0  0  0  0  0  0  0  0
   -3.8607    6.7403    0.0000 C   0  0  0  0  0  0  0  0  0  0  0  0
   -2.3664    6.6096    0.0000 O   0  0  0  0  0  0  0  0  0  0  0  0
   -0.4330    0.7500    0.0000 C   0  0  0  0  0  0  0  0  0  0  0  0
    0.8660    0.0000    0.0000 C   0  0  0  0  0  0  0  0  0  0  0  0
   -0.4330   -0.7500    0.0000 C   0  0  0  0  0  0  0  0  0  0  0  0
   -0.0448   -2.1989    0.0000 C   0  0  0  0  0  0  0  0  0  0  0  0
    0.3434   -3.6478    0.0000 C   0  0  0  0  0  0  0  0  0  0  0  0
    0.7317   -5.0967    0.0000 C   0  0  0  0  0  0  0  0  0  0  0  0
    1.1199   -6.5456    0.0000 C   0  0  0  0  0  0  0  0  0  0  0  0
    1.5081   -7.9944    0.0000 F   0  0  0  0  0  0  0  0  0  0  0  0
   -1.4937   -2.5871    0.0000 C   0  0  0  0  0  0  0  0  0  0  0  0
   -2.9426   -2.9753    0.0000 C   0  0  0  0  0  0  0  0  0  0  0  0
   -1.1054   -4.0360    0.0000 C   0  0  0  0  0  0  0  0  0  0  0  0
   -0.7172   -5.4849    0.0000 C   0  0  0  0  0  0  0  0  0  0  0  0
   -0.3290   -6.9338    0.0000 C   0  0  0  0  0  0  0  0  0  0  0  0
   -1.9330   -0.7500    0.0000 C   0  0  0  0  0  0  0  0  0  0  0  0
   -1.9330    0.7500    0.0000 C   0  0  0  0  0  0  0  0  0  0  0  0
   -1.9330    2.2500    0.0000 C   0  0  0  0  0  0  0  0  0  0  0  0
   -0.4841    2.6382    0.0000 C   0  0  0  0  0  0  0  0  0  0  0  0
   -1.5448    3.6989    0.0000 C   0  0  0  0  0  0  0  0  0  0  0  0
   -2.9937    4.0871    0.0000 N   0  0  0  0  0  0  0  0  0  0  0  0
   -3.3819    2.6382    0.0000 C   0  0  0  0  0  0  0  0  0  0  0  0
   -3.7701    1.1893    0.0000 C   0  0  0  0  0  0  0  0  0  0  0  0
   -4.1584   -0.2595    0.0000 C   0  0  0  0  0  0  0  0  0  0  0  0
   -4.5466   -1.7084    0.0000 C   0  0  0  0  0  0  0  0  0  0  0  0
   -4.9348   -3.1573    0.0000 C   0  0  0  0  0  0  0  0  0  0  0  0
   -5.3230   -4.6062    0.0000 C   0  0  0  0  0  0  0  0  0  0  0  0
   -5.7113   -6.0551    0.0000 C   0  0  0  0  0  0  0  0  0  0  0  0
    1.7923    4.0360    0.0000 H   0  0  0  0  0  0  0  0  0  0  0  0
    2.5861    1.6637    0.0000 H   0  0  0  0  0  0  0  0  0  0  0  0
   -0.0448    4.3202    0.0000 H   0  0  0  0  0  0  0  0  0  0  0  0
   -2.3912    2.4871    0.0000 H   0  0  0  0  0  0  0  0  0  0  0  0
   -1.2426    5.5023    0.0000 H   0  0  0  0  0  0  0  0  0  0  0  0
   -3.5365    3.7102    0.0000 H   0  0  0  0  0  0  0  0  0  0  0  0
   -5.6842    3.6601    0.0000 H   0  0  0  0  0  0  0  0  0  0  0  0
   -5.4592    5.6352    0.0000 H   0  0  0  0  0  0  0  0  0  0  0  0
   -4.0927    3.0650    0.0000 H   0  0  0  0  0  0  0  0  0  0  0  0
   -5.3461    6.5316    0.0000 H   0  0  0  0  0  0  0  0  0  0  0  0
   -3.9914    8.2346    0.0000 H   0  0  0  0  0  0  0  0  0  0  0  0
    1.9631    1.0230    0.0000 H   0  0  0  0  0  0  0  0  0  0  0  0
    1.9631   -1.0230    0.0000 H   0  0  0  0  0  0  0  0  0  0  0  0
    1.4406   -1.9902    0.0000 H   0  0  0  0  0  0  0  0  0  0  0  0
    1.7923   -3.2595    0.0000 H   0  0  0  0  0  0  0  0  0  0  0  0
   -0.9684   -4.3751    0.0000 H   0  0  0  0  0  0  0  0  0  0  0  0
   -0.5802   -5.8240    0.0000 H   0  0  0  0  0  0  0  0  0  0  0  0
    2.1806   -4.7084    0.0000 H   0  0  0  0  0  0  0  0  0  0  0  0
    2.5688   -6.1573    0.0000 H   0  0  0  0  0  0  0  0  0  0  0  0
   -0.1920   -7.2728    0.0000 H   0  0  0  0  0  0  0  0  0  0  0  0
   -2.2210   -1.2752    0.0000 H   0  0  0  0  0  0  0  0  0  0  0  0
   -4.2545   -3.7026    0.0000 H   0  0  0  0  0  0  0  0  0  0  0  0
   -2.7338   -4.4608    0.0000 H   0  0  0  0  0  0  0  0  0  0  0  0
   -3.3308   -1.5265    0.0000 H   0  0  0  0  0  0  0  0  0  0  0  0
   -2.4962   -4.5980    0.0000 H   0  0  0  0  0  0  0  0  0  0  0  0
    0.3943   -4.0099    0.0000 H   0  0  0  0  0  0  0  0  0  0  0  0
   -2.1661   -5.8731    0.0000 H   0  0  0  0  0  0  0  0  0  0  0  0
    0.7826   -5.4588    0.0000 H   0  0  0  0  0  0  0  0  0  0  0  0
    0.0592   -8.3827    0.0000 H   0  0  0  0  0  0  0  0  0  0  0  0
   -1.7779   -7.3220    0.0000 H   0  0  0  0  0  0  0  0  0  0  0  0
    1.1708   -6.9077    0.0000 H   0  0  0  0  0  0  0  0  0  0  0  0
   -3.4330   -0.7500    0.0000 H   0  0  0  0  0  0  0  0  0  0  0  0
   -2.2960   -2.2054    0.0000 H   0  0  0  0  0  0  0  0  0  0  0  0
   -3.3884    0.3870    0.0000 H   0  0  0  0  0  0  0  0  0  0  0  0
    0.4599    1.4726    0.0000 H   0  0  0  0  0  0  0  0  0  0  0  0
    0.7446    3.4986    0.0000 H   0  0  0  0  0  0  0  0  0  0  0  0
   -0.6420    4.8968    0.0000 H   0  0  0  0  0  0  0  0  0  0  0  0
   -4.0357    5.1661    0.0000 H   0  0  0  0  0  0  0  0  0  0  0  0
   -4.8308    3.0265    0.0000 H   0  0  0  0  0  0  0  0  0  0  0  0
   -5.2190    1.5776    0.0000 H   0  0  0  0  0  0  0  0  0  0  0  0
   -2.4582    0.4621    0.0000 H   0  0  0  0  0  0  0  0  0  0  0  0
   -5.6072    0.1287    0.0000 H   0  0  0  0  0  0  0  0  0  0  0  0
   -2.9449   -1.1413    0.0000 H   0  0  0  0  0  0  0  0  0  0  0  0
   -5.9955   -1.3202    0.0000 H   0  0  0  0  0  0  0  0  0  0  0  0
   -3.0612   -1.9172    0.0000 H   0  0  0  0  0  0  0  0  0  0  0  0
   -6.3837   -2.7691    0.0000 H   0  0  0  0  0  0  0  0  0  0  0  0
   -3.6229   -3.8846    0.0000 H   0  0  0  0  0  0  0  0  0  0  0  0
   -6.7719   -4.2180    0.0000 H   0  0  0  0  0  0  0  0  0  0  0  0
   -3.8742   -4.9944    0.0000 H   0  0  0  0  0  0  0  0  0  0  0  0
   -6.0995   -7.5040    0.0000 H   0  0  0  0  0  0  0  0  0  0  0  0
   -7.1602   -5.6669    0.0000 H   0  0  0  0  0  0  0  0  0  0  0  0
   -4.2624   -6.4433    0.0000 H   0  0  0  0  0  0  0  0  0  0  0  0
  1  2  2  3
  2  3  1  0
  3  4  1  0
  4  5  1  0
  5  6  1  0
  5  7  1  0
  7  8  1  0
  2  9  1  0
  9 10  1  0
 10 11  1  0
 11 12  1  0
 12 13  1  0
 13 14  1  0
 14 15  1  0
 15 16  1  0
 12 17  1  0
 17 18  1  0
 17 19  1  0
 19 20  1  0
 20 21  1  0
 11 22  1  0
 22 23  1  0
 23 24  1  0
 24 25  1  0
 25 26  1  0
 26 27  1  0
 27 28  1  0
 28 29  1  0
 29 30  1  0
 30 31  1  0
 31 32  1  0
 32 33  1  0
 33 34  1  0
  8  5  1  0
 11  9  1  0
 26 24  1  0
 23  9  1  0
 28 24  1  0
  1 35  1  0
  1 36  1  0
  3 37  1  0
  3 38  1  0
  4 39  1  0
  4 40  1  0
  6 41  1  0
  6 42  1  0
  6 43  1  0
  7 44  1  0
  7 45  1  0
 10 46  1  0
 10 47  1  0
 12 48  1  0
 13 49  1  0
 13 50  1  0
 14 51  1  0
 14 52  1  0
 15 53  1  0
 15 54  1  0
 17 55  1  0
 18 56  1  0
 18 57  1  0
 18 58  1  0
 19 59  1  0
 19 60  1  0
 20 61  1  0
 20 62  1  0
 21 63  1  0
 21 64  1  0
 21 65  1  0
 22 66  1  0
 22 67  1  0
 23 68  1  0
 25 69  1  0
 25 70  1  0
 26 71  1  0
 27 72  1  0
 28 73  1  0
 29 74  1  0
 29 75  1  0
 30 76  1  0
 30 77  1  0
 31 78  1  0
 31 79  1  0
 32 80  1  0
 32 81  1  0
 33 82  1  0
 33 83  1  0
 34 84  1  0
 34 85  1  0
 34 86  1  0
M  END
$$$$
