
     RDKit          2D

 98109  0  0  0  0  0  0  0  0999 V2000
   -8.7877    4.5029    0.0000 C   0  0  0  0  0  0  0  0  0  0  0  0
   -8.1200    3.1597    0.0000 C   0  0  0  0  0  0  0  0  0  0  0  0
   -6.6229    3.0663    0.0000 C   0  0  0  0  0  0  0  0  0  0  0  0
   -6.4550    1.5757    0.0000 C   0  0  0  0  0  0  0  0  0  0  0  0
   -6.2870    0.0851    0.0000 C   0  0  0  0  0  0  0  0  0  0  0  0
   -4.9122   -0.5147    0.0000 C   0  0  0  0  0  0  0  0  0  0  0  0
   -3.7053    0.3760    0.0000 C   0  0  0  0  0  0  0  0  0  0  0  0
   -2.2147    0.5440    0.0000 C   0  0  0  0  0  0  0  0  0  0  0  0
   -1.0420   -0.3913    0.0000 C   0  0  0  0  0  0  0  0  0  0  0  0
    0.1308   -1.3265    0.0000 C   0  0  0  0  0  0  0  0  0  0  0  0
    1.3035   -2.2617    0.0000 O   0  0  0  0  0  0  0  0  0  0  0  0
    2.6998   -1.7137    0.0000 C   0  0  0  0  0  0  0  0  0  0  0  0
    4.0961   -1.1657    0.0000 C   0  0  0  0  0  0  0  0  0  0  0  0
    5.4924   -0.6177    0.0000 S   0  0  0  0  0  0  0  0  0  0  0  0
   -1.9772   -1.5640    0.0000 C   0  0  0  0  0  0  0  0  0  0  0  0
   -2.9125   -2.7368    0.0000 B   0  0  0  0  0  0  0  0  0  0  0  0
   -2.5134   -4.1827    0.0000 C   0  0  0  0  0  0  0  0  0  0  0  0
   -3.7653   -5.0091    0.0000 C   0  0  0  0  0  0  0  0  0  0  0  0
   -4.9380   -4.0738    0.0000 N   0  0  0  0  0  0  0  0  0  0  0  0
   -4.4110   -2.6695    0.0000 O   0  0  0  0  0  0  0  0  0  0  0  0
   -2.3827    2.0345    0.0000 C   0  0  0  0  0  0  0  0  0  0  0  0
   -3.8733    1.8666    0.0000 C   0  0  0  0  0  0  0  0  0  0  0  0
   -3.6497    3.3498    0.0000 C   0  0  0  0  0  0  0  0  0  0  0  0
   -2.9323    4.6672    0.0000 C   0  0  0  0  0  0  0  0  0  0  0  0
   -2.1502    3.3872    0.0000 C   0  0  0  0  0  0  0  0  0  0  0  0
   -0.7538    3.9352    0.0000 C   0  0  0  0  0  0  0  0  0  0  0  0
    0.6425    4.4832    0.0000 C   0  0  0  0  0  0  0  0  0  0  0  0
    2.1383    4.3712    0.0000 C   0  0  0  0  0  0  0  0  0  0  0  0
    3.1585    5.4707    0.0000 C   0  0  0  0  0  0  0  0  0  0  0  0
    4.0035    4.2314    0.0000 C   0  0  0  0  0  0  0  0  0  0  0  0
    2.9350    6.9540    0.0000 C   0  0  0  0  0  0  0  0  0  0  0  0
    1.6359    7.7040    0.0000 C   0  0  0  0  0  0  0  0  0  0  0  0
    0.2396    7.1560    0.0000 C   0  0  0  0  0  0  0  0  0  0  0  0
   -1.2436    6.9324    0.0000 O   0  0  0  0  0  0  0  0  0  0  0  0
   -0.7806    8.2555    0.0000 C   0  0  0  0  0  0  0  0  0  0  0  0
   -2.2430    7.9218    0.0000 C   0  0  0  0  0  0  0  0  0  0  0  0
   -2.6852    6.4884    0.0000 C   0  0  0  0  0  0  0  0  0  0  0  0
   -1.6649    5.3888    0.0000 C   0  0  0  0  0  0  0  0  0  0  0  0
   -0.2025    5.7226    0.0000 C   0  0  0  0  0  0  0  0  0  0  0  0
   -4.1476    6.1546    0.0000 C   0  0  0  0  0  0  0  0  0  0  0  0
   -5.1678    7.2542    0.0000 C   0  0  0  0  0  0  0  0  0  0  0  0
   -5.6100    5.8208    0.0000 N   0  0  0  0  0  0  0  0  0  0  0  0
   -6.7095    4.8006    0.0000 N   0  0  0  0  0  0  0  0  0  0  0  0
   -3.7054    7.5880    0.0000 C   0  0  0  0  0  0  0  0  0  0  0  0
   -5.2481    2.4664    0.0000 N   0  0  0  0  0  0  0  0  0  0  0  0
  -10.2847    4.5964    0.0000 H   0  0  0  0  0  0  0  0  0  0  0  0
   -8.1167    5.8445    0.0000 H   0  0  0  0  0  0  0  0  0  0  0  0
   -8.9495    1.9099    0.0000 H   0  0  0  0  0  0  0  0  0  0  0  0
   -6.6289    3.8634    0.0000 H   0  0  0  0  0  0  0  0  0  0  0  0
   -7.9456    1.4077    0.0000 H   0  0  0  0  0  0  0  0  0  0  0  0
   -6.6390   -1.3730    0.0000 H   0  0  0  0  0  0  0  0  0  0  0  0
   -7.7841    0.1786    0.0000 H   0  0  0  0  0  0  0  0  0  0  0  0
   -5.1099   -2.0016    0.0000 H   0  0  0  0  0  0  0  0  0  0  0  0
   -3.1573   -1.0203    0.0000 H   0  0  0  0  0  0  0  0  0  0  0  0
   -0.1068    0.7815    0.0000 H   0  0  0  0  0  0  0  0  0  0  0  0
   -0.4929   -2.6907    0.0000 H   0  0  0  0  0  0  0  0  0  0  0  0
    1.0660   -0.1538    0.0000 H   0  0  0  0  0  0  0  0  0  0  0  0
    2.1518   -0.3174    0.0000 H   0  0  0  0  0  0  0  0  0  0  0  0
    3.2478   -3.1100    0.0000 H   0  0  0  0  0  0  0  0  0  0  0  0
    4.6441   -2.5620    0.0000 H   0  0  0  0  0  0  0  0  0  0  0  0
    3.5481    0.2306    0.0000 H   0  0  0  0  0  0  0  0  0  0  0  0
    6.6652   -1.5529    0.0000 H   0  0  0  0  0  0  0  0  0  0  0  0
   -1.0656   -2.7552    0.0000 H   0  0  0  0  0  0  0  0  0  0  0  0
   -0.8045   -2.4993    0.0000 H   0  0  0  0  0  0  0  0  0  0  0  0
   -1.1171   -3.6347    0.0000 H   0  0  0  0  0  0  0  0  0  0  0  0
   -1.8224   -5.5141    0.0000 H   0  0  0  0  0  0  0  0  0  0  0  0
   -2.8126   -6.1677    0.0000 H   0  0  0  0  0  0  0  0  0  0  0  0
   -4.8180   -6.0776    0.0000 H   0  0  0  0  0  0  0  0  0  0  0  0
   -6.3840   -4.4729    0.0000 H   0  0  0  0  0  0  0  0  0  0  0  0
   -2.1850    3.5214    0.0000 H   0  0  0  0  0  0  0  0  0  0  0  0
   -3.7883    1.5109    0.0000 H   0  0  0  0  0  0  0  0  0  0  0  0
   -5.0716    3.8276    0.0000 H   0  0  0  0  0  0  0  0  0  0  0  0
   -4.2965    5.2908    0.0000 H   0  0  0  0  0  0  0  0  0  0  0  0
   -1.9370    5.7894    0.0000 H   0  0  0  0  0  0  0  0  0  0  0  0
   -1.5060    2.0326    0.0000 H   0  0  0  0  0  0  0  0  0  0  0  0
   -0.2058    2.5389    0.0000 H   0  0  0  0  0  0  0  0  0  0  0  0
   -1.6234    5.1574    0.0000 H   0  0  0  0  0  0  0  0  0  0  0  0
    0.6836    2.9838    0.0000 H   0  0  0  0  0  0  0  0  0  0  0  0
    1.8742    2.8946    0.0000 H   0  0  0  0  0  0  0  0  0  0  0  0
    3.3362    3.4684    0.0000 H   0  0  0  0  0  0  0  0  0  0  0  0
    4.6112    5.8444    0.0000 H   0  0  0  0  0  0  0  0  0  0  0  0
    4.8485    2.9920    0.0000 H   0  0  0  0  0  0  0  0  0  0  0  0
    5.2429    5.0764    0.0000 H   0  0  0  0  0  0  0  0  0  0  0  0
    2.8764    3.2416    0.0000 H   0  0  0  0  0  0  0  0  0  0  0  0
    4.4333    7.0250    0.0000 H   0  0  0  0  0  0  0  0  0  0  0  0
    3.5485    8.3228    0.0000 H   0  0  0  0  0  0  0  0  0  0  0  0
    2.5145    8.9197    0.0000 H   0  0  0  0  0  0  0  0  0  0  0  0
    0.9483    9.0371    0.0000 H   0  0  0  0  0  0  0  0  0  0  0  0
   -2.1132    5.7102    0.0000 H   0  0  0  0  0  0  0  0  0  0  0  0
   -1.3633    9.6378    0.0000 H   0  0  0  0  0  0  0  0  0  0  0  0
    0.3708    9.2169    0.0000 H   0  0  0  0  0  0  0  0  0  0  0  0
   -1.7335    6.5110    0.0000 H   0  0  0  0  0  0  0  0  0  0  0  0
   -1.4340    3.9067    0.0000 H   0  0  0  0  0  0  0  0  0  0  0  0
   -3.0844    4.9041    0.0000 H   0  0  0  0  0  0  0  0  0  0  0  0
    1.2975    5.7226    0.0000 H   0  0  0  0  0  0  0  0  0  0  0  0
   -6.1881    8.3538    0.0000 H   0  0  0  0  0  0  0  0  0  0  0  0
   -6.7395    3.3009    0.0000 H   0  0  0  0  0  0  0  0  0  0  0  0
   -8.0783    5.4141    0.0000 H   0  0  0  0  0  0  0  0  0  0  0  0
  1  2  2  3
  2  3  1  0
  3  4  1  0
  4  5  1  0
  5  6  1  0
  6  7  1  0
  7  8  1  0
  8  9  1  0
  9 10  1  0
 10 11  1  0
 11 12  1  0
 12 13  1  0
 13 14  1  0
  9 15  1  0
 15 16  1  0
 16 17  1  0
 17 18  1  0
 18 19  1  0
 19 20  1  0
  8 21  1  1
 22 21  1  1
 22 23  1  0
 23 24  1  0
 24 25  1  0
 25 26  1  0
 26 27  1  0
 27 28  1  0
 28 29  1  0
 29 30  1  0
 29 31  1  0
 31 32  1  0
 32 33  1  0
 33 34  1  6
 33 35  1  0
 35 36  1  0
 36 37  1  0
 37 38  1  6
 38 39  1  0
 37 40  1  0
 40 41  1  0
 41 42  1  0
 42 43  1  0
 41 44  1  0
 22 45  1  0
 45  3  1  0
 45  4  1  0
  8  6  1  0
 20 16  1  0
 25 23  1  0
 39 27  1  0
 40 42  1  6
 22  7  1  0
 39 33  1  0
 44 40  1  6
 44 36  1  0
 44 37  1  0
  1 46  1  0
  1 47  1  0
  2 48  1  0
  3 49  1  6
  4 50  1  1
  5 51  1  0
  5 52  1  0
  6 53  1  6
  7 54  1  6
  9 55  1  1
 10 56  1  0
 10 57  1  0
 12 58  1  0
 12 59  1  0
 13 60  1  0
 13 61  1  0
 14 62  1  0
 15 63  1  0
 15 64  1  0
 17 65  1  0
 17 66  1  0
 18 67  1  0
 18 68  1  0
 19 69  1  0
 21 70  1  0
 21 71  1  0
 23 72  1  6
 24 73  1  0
 24 74  1  0
 25 75  1  1
 26 76  1  0
 26 77  1  0
 27 78  1  1
 28 79  1  0
 28 80  1  0
 29 81  1  6
 30 82  1  0
 30 83  1  0
 30 84  1  0
 31 85  1  0
 31 86  1  0
 32 87  1  0
 32 88  1  0
 34 89  1  0
 35 90  1  0
 35 91  1  0
 36 92  1  1
 38 93  1  0
 38 94  1  0
 39 95  1  1
 41 96  1  1
 43 97  1  0
 43 98  1  0
M  END
$$$$
