
     RDKit          2D

 23 25  0  0  0  0  0  0  0  0999 V2000
   -4.6194   -2.2361    0.0000 O   0  0  0  0  0  0  0  0  0  0  0  0
   -3.3493   -1.4380    0.0000 C   0  0  0  0  0  0  0  0  0  0  0  0
   -2.8539   -2.8539    0.0000 C   0  0  0  0  0  0  0  0  0  0  0  0
   -1.4380   -3.3493    0.0000 C   0  0  0  0  0  0  0  0  0  0  0  0
   -0.1679   -2.5512    0.0000 C   0  0  0  0  0  0  0  0  0  0  0  0
    1.2069   -1.9514    0.0000 C   0  0  0  0  0  0  0  0  0  0  0  0
   -0.0000   -1.0607    0.0000 C   0  0  0  0  0  0  0  0  0  0  0  0
    1.0607    0.0000    0.0000 C   0  0  0  0  0  0  0  0  0  0  0  0
    0.0000    1.0607    0.0000 O   0  0  0  0  0  0  0  0  0  0  0  0
   -1.0607    0.0000    0.0000 C   0  0  0  0  0  0  0  0  0  0  0  0
   -2.5512   -0.1679    0.0000 O   0  0  0  0  0  0  0  0  0  0  0  0
   -5.9455   -1.5352    0.0000 H   0  0  0  0  0  0  0  0  0  0  0  0
   -4.4099   -0.3774    0.0000 H   0  0  0  0  0  0  0  0  0  0  0  0
   -3.2022   -4.3128    0.0000 H   0  0  0  0  0  0  0  0  0  0  0  0
   -4.2595   -3.3775    0.0000 H   0  0  0  0  0  0  0  0  0  0  0  0
   -0.3774   -4.4099    0.0000 H   0  0  0  0  0  0  0  0  0  0  0  0
   -2.0753   -4.7072    0.0000 H   0  0  0  0  0  0  0  0  0  0  0  0
    0.5330   -3.8774    0.0000 H   0  0  0  0  0  0  0  0  0  0  0  0
    2.0364   -3.2012    0.0000 H   0  0  0  0  0  0  0  0  0  0  0  0
    1.8471   -1.4764    0.0000 H   0  0  0  0  0  0  0  0  0  0  0  0
    2.1213    1.0607    0.0000 H   0  0  0  0  0  0  0  0  0  0  0  0
    1.6888   -0.4908    0.0000 H   0  0  0  0  0  0  0  0  0  0  0  0
   -1.7115    1.3515    0.0000 H   0  0  0  0  0  0  0  0  0  0  0  0
  1  2  1  0
  2  3  1  0
  3  4  1  0
  4  5  1  0
  5  6  1  0
  7  6  1  6
  7  8  1  0
  8  9  1  0
  9 10  1  0
 10 11  1  0
 11  2  1  0
  7  5  1  0
 10  7  1  0
  1 12  1  0
  2 13  1  1
  3 14  1  0
  3 15  1  0
  4 16  1  0
  4 17  1  0
  5 18  1  1
  6 19  1  0
  6 20  1  0
  8 21  1  0
  8 22  1  0
 10 23  1  6
M  END
$$$$
