
     RDKit          2D

 67 74  0  0  0  0  0  0  0  0999 V2000
    4.7228    4.5963    0.0000 C   0  0  0  0  0  0  0  0  0  0  0  0
    3.7586    3.4472    0.0000 C   0  0  0  0  0  0  0  0  0  0  0  0
    2.7944    2.2981    0.0000 C   0  0  0  0  0  0  0  0  0  0  0  0
    1.8302    1.1491    0.0000 C   0  0  0  0  0  0  0  0  0  0  0  0
    0.8660    0.0000    0.0000 C   0  0  0  0  0  0  0  0  0  0  0  0
   -0.4330    0.7500    0.0000 C   0  0  0  0  0  0  0  0  0  0  0  0
   -1.6058    1.6852    0.0000 C   0  0  0  0  0  0  0  0  0  0  0  0
   -3.0682    1.3515    0.0000 C   0  0  0  0  0  0  0  0  0  0  0  0
   -3.7190   -0.0000    0.0000 C   0  0  0  0  0  0  0  0  0  0  0  0
   -3.0682   -1.3515    0.0000 N   0  0  0  0  0  0  0  0  0  0  0  0
   -1.6058   -1.6852    0.0000 C   0  0  0  0  0  0  0  0  0  0  0  0
   -0.4330   -0.7500    0.0000 C   0  0  0  0  0  0  0  0  0  0  0  0
   -0.2094   -2.2332    0.0000 C   0  0  0  0  0  0  0  0  0  0  0  0
    0.7258   -3.4060    0.0000 C   0  0  0  0  0  0  0  0  0  0  0  0
    1.6610   -4.5787    0.0000 C   0  0  0  0  0  0  0  0  0  0  0  0
    2.5963   -5.7515    0.0000 C   0  0  0  0  0  0  0  0  0  0  0  0
    4.0795   -5.5279    0.0000 C   0  0  0  0  0  0  0  0  0  0  0  0
    3.5315   -6.9242    0.0000 C   0  0  0  0  0  0  0  0  0  0  0  0
    2.0482   -7.1478    0.0000 C   0  0  0  0  0  0  0  0  0  0  0  0
    2.0108   -8.6473    0.0000 C   0  0  0  0  0  0  0  0  0  0  0  0
   -0.4470   -4.3412    0.0000 C   0  0  0  0  0  0  0  0  0  0  0  0
   -1.6197   -5.2765    0.0000 C   0  0  0  0  0  0  0  0  0  0  0  0
   -2.7925   -6.2117    0.0000 F   0  0  0  0  0  0  0  0  0  0  0  0
   -1.3822   -3.1685    0.0000 C   0  0  0  0  0  0  0  0  0  0  0  0
   -2.6995   -3.8859    0.0000 C   0  0  0  0  0  0  0  0  0  0  0  0
   -4.1991   -3.8485    0.0000 S   0  0  0  0  0  0  0  0  0  0  0  0
   -4.1617   -2.3489    0.0000 C   0  0  0  0  0  0  0  0  0  0  0  0
   -2.6621   -2.3863    0.0000 C   0  0  0  0  0  0  0  0  0  0  0  0
   -2.2379   -0.9476    0.0000 C   0  0  0  0  0  0  0  0  0  0  0  0
    5.6869    5.7453    0.0000 H   0  0  0  0  0  0  0  0  0  0  0  0
    5.8718    3.6321    0.0000 H   0  0  0  0  0  0  0  0  0  0  0  0
    3.5737    5.5604    0.0000 H   0  0  0  0  0  0  0  0  0  0  0  0
    4.9076    2.4830    0.0000 H   0  0  0  0  0  0  0  0  0  0  0  0
    2.6095    4.4114    0.0000 H   0  0  0  0  0  0  0  0  0  0  0  0
    1.6453    3.2623    0.0000 H   0  0  0  0  0  0  0  0  0  0  0  0
    3.9435    1.3340    0.0000 H   0  0  0  0  0  0  0  0  0  0  0  0
    1.0845    1.9488    0.0000 H   0  0  0  0  0  0  0  0  0  0  0  0
    2.9793    0.1849    0.0000 H   0  0  0  0  0  0  0  0  0  0  0  0
    1.8302   -1.1491    0.0000 H   0  0  0  0  0  0  0  0  0  0  0  0
    0.0683    1.7218    0.0000 H   0  0  0  0  0  0  0  0  0  0  0  0
   -0.4330    2.6205    0.0000 H   0  0  0  0  0  0  0  0  0  0  0  0
   -2.0870    3.1059    0.0000 H   0  0  0  0  0  0  0  0  0  0  0  0
   -3.2510    2.8403    0.0000 H   0  0  0  0  0  0  0  0  0  0  0  0
   -4.4790    1.8610    0.0000 H   0  0  0  0  0  0  0  0  0  0  0  0
   -4.9970    0.7853    0.0000 H   0  0  0  0  0  0  0  0  0  0  0  0
   -4.9970   -0.7853    0.0000 H   0  0  0  0  0  0  0  0  0  0  0  0
   -2.0181   -2.3675    0.0000 H   0  0  0  0  0  0  0  0  0  0  0  0
    1.8985   -2.4708    0.0000 H   0  0  0  0  0  0  0  0  0  0  0  0
    2.8338   -3.6435    0.0000 H   0  0  0  0  0  0  0  0  0  0  0  0
    0.6110   -5.6500    0.0000 H   0  0  0  0  0  0  0  0  0  0  0  0
    4.1169   -4.0284    0.0000 H   0  0  0  0  0  0  0  0  0  0  0  0
    5.5498   -5.8251    0.0000 H   0  0  0  0  0  0  0  0  0  0  0  0
    4.4667   -8.0970    0.0000 H   0  0  0  0  0  0  0  0  0  0  0  0
    0.5780   -6.8506    0.0000 H   0  0  0  0  0  0  0  0  0  0  0  0
    1.9735  -10.1469    0.0000 H   0  0  0  0  0  0  0  0  0  0  0  0
    3.5104   -8.6847    0.0000 H   0  0  0  0  0  0  0  0  0  0  0  0
    0.5113   -8.6099    0.0000 H   0  0  0  0  0  0  0  0  0  0  0  0
    0.3383   -5.6192    0.0000 H   0  0  0  0  0  0  0  0  0  0  0  0
   -0.6845   -6.4492    0.0000 H   0  0  0  0  0  0  0  0  0  0  0  0
   -2.8109   -4.3649    0.0000 H   0  0  0  0  0  0  0  0  0  0  0  0
   -0.5342   -1.9312    0.0000 H   0  0  0  0  0  0  0  0  0  0  0  0
   -2.7108   -5.3858    0.0000 H   0  0  0  0  0  0  0  0  0  0  0  0
   -4.4882   -0.8849    0.0000 H   0  0  0  0  0  0  0  0  0  0  0  0
   -5.6612   -2.3115    0.0000 H   0  0  0  0  0  0  0  0  0  0  0  0
   -1.8137    0.4912    0.0000 H   0  0  0  0  0  0  0  0  0  0  0  0
   -3.4290   -0.0358    0.0000 H   0  0  0  0  0  0  0  0  0  0  0  0
   -0.7427   -0.8279    0.0000 H   0  0  0  0  0  0  0  0  0  0  0  0
  1  2  1  0
  2  3  1  0
  3  4  1  0
  4  5  1  0
  5  6  1  0
  6  7  1  0
  7  8  1  0
  8  9  1  0
  9 10  1  0
 10 11  1  0
 11 12  1  0
 12 13  1  6
 13 14  1  0
 14 15  1  0
 16 15  1  1
 16 17  1  0
 17 18  1  0
 18 19  1  0
 19 20  1  0
 14 21  1  0
 21 22  1  0
 22 23  1  0
 21 24  1  0
 24 25  1  0
 25 26  1  0
 26 27  1  0
 27 28  1  0
 28 29  1  1
 12  5  1  0
 18 16  1  0
 28 24  1  0
 12  6  1  0
 19 16  1  0
 28 25  1  0
 13 10  1  1
 13 11  1  0
  1 30  1  0
  1 31  1  0
  1 32  1  0
  2 33  1  0
  2 34  1  0
  3 35  1  0
  3 36  1  0
  4 37  1  0
  4 38  1  0
  5 39  1  6
  6 40  1  1
  7 41  1  0
  7 42  1  0
  8 43  1  0
  8 44  1  0
  9 45  1  0
  9 46  1  0
 11 47  1  6
 14 48  1  1
 15 49  1  0
 15 50  1  0
 17 51  1  0
 17 52  1  0
 18 53  1  1
 19 54  1  1
 20 55  1  0
 20 56  1  0
 20 57  1  0
 21 58  1  6
 22 59  1  0
 22 60  1  0
 24 61  1  1
 25 62  1  1
 27 63  1  0
 27 64  1  0
 29 65  1  0
 29 66  1  0
 29 67  1  0
M  END
$$$$
