
     RDKit          2D

 62 63  0  0  0  0  0  0  0  0999 V2000
    0.3833    3.2331    0.0000 C   0  0  0  0  0  0  0  0  0  0  0  0
    1.3870    2.1184    0.0000 C   0  0  0  0  0  0  0  0  0  0  0  0
    2.3907    1.0037    0.0000 C   0  0  0  0  0  0  0  0  0  0  0  0
    3.3944   -0.1110    0.0000 C   0  0  0  0  0  0  0  0  0  0  0  0
    1.2760    0.0000    0.0000 C   0  0  0  0  0  0  0  0  0  0  0  0
    0.3943    1.2135    0.0000 O   0  0  0  0  0  0  0  0  0  0  0  0
   -1.0323    0.7500    0.0000 C   0  0  0  0  0  0  0  0  0  0  0  0
   -1.0323   -0.7500    0.0000 C   0  0  0  0  0  0  0  0  0  0  0  0
   -1.3442   -2.2172    0.0000 C   0  0  0  0  0  0  0  0  0  0  0  0
   -1.6560   -3.6844    0.0000 C   0  0  0  0  0  0  0  0  0  0  0  0
   -1.9679   -5.1517    0.0000 S   0  0  0  0  0  5  0  0  0  0  0  0
   -2.7628   -6.4237    0.0000 C   0  0  0  0  0  0  0  0  0  0  0  0
   -4.2619   -6.3714    0.0000 C   0  0  0  0  0  0  0  0  0  0  0  0
   -5.0567   -7.6435    0.0000 C   0  0  0  0  0  0  0  0  0  0  0  0
   -6.5558   -7.5911    0.0000 C   0  0  0  0  0  0  0  0  0  0  0  0
   -8.0549   -7.5388    0.0000 C   0  0  0  0  0  0  0  0  0  0  0  0
   -9.5540   -7.4864    0.0000 C   0  0  0  0  0  0  0  0  0  0  0  0
  -11.0531   -7.4341    0.0000 C   0  0  0  0  0  0  0  0  0  0  0  0
  -12.4797   -7.8976    0.0000 C   0  0  0  0  0  0  0  0  0  0  0  0
  -11.3649   -8.9013    0.0000 C   0  0  0  0  0  0  0  0  0  0  0  0
    0.3943   -1.2135    0.0000 C   0  0  0  0  0  0  0  0  0  0  0  0
    1.6933   -1.9635    0.0000 C   0  0  0  0  0  0  0  0  0  0  0  0
    2.9924   -2.7135    0.0000 C   0  0  0  0  0  0  0  0  0  0  0  0
   -0.6204    4.3478    0.0000 H   0  0  0  0  0  0  0  0  0  0  0  0
    1.4980    4.2368    0.0000 H   0  0  0  0  0  0  0  0  0  0  0  0
   -0.8454    2.3728    0.0000 H   0  0  0  0  0  0  0  0  0  0  0  0
    0.6831    1.7442    0.0000 H   0  0  0  0  0  0  0  0  0  0  0  0
    2.5017    3.1221    0.0000 H   0  0  0  0  0  0  0  0  0  0  0  0
    3.5054    2.0074    0.0000 H   0  0  0  0  0  0  0  0  0  0  0  0
    4.5265   -1.0951    0.0000 H   0  0  0  0  0  0  0  0  0  0  0  0
    4.6231    0.7493    0.0000 H   0  0  0  0  0  0  0  0  0  0  0  0
    4.3784    1.0211    0.0000 H   0  0  0  0  0  0  0  0  0  0  0  0
    2.5047   -0.8603    0.0000 H   0  0  0  0  0  0  0  0  0  0  0  0
   -2.5241    0.5932    0.0000 H   0  0  0  0  0  0  0  0  0  0  0  0
   -1.5207    2.1683    0.0000 H   0  0  0  0  0  0  0  0  0  0  0  0
   -2.5241   -0.5932    0.0000 H   0  0  0  0  0  0  0  0  0  0  0  0
   -2.8114   -1.9054    0.0000 H   0  0  0  0  0  0  0  0  0  0  0  0
    0.0741   -2.7056    0.0000 H   0  0  0  0  0  0  0  0  0  0  0  0
   -3.1232   -3.3726    0.0000 H   0  0  0  0  0  0  0  0  0  0  0  0
   -0.1888   -3.9963    0.0000 H   0  0  0  0  0  0  0  0  0  0  0  0
   -3.3587   -4.5898    0.0000 H   0  0  0  0  0  0  0  0  0  0  0  0
   -0.8532   -6.1554    0.0000 H   0  0  0  0  0  0  0  0  0  0  0  0
   -2.0586   -7.7482    0.0000 H   0  0  0  0  0  0  0  0  0  0  0  0
   -4.9661   -5.0470    0.0000 H   0  0  0  0  0  0  0  0  0  0  0  0
   -4.3525   -8.9679    0.0000 H   0  0  0  0  0  0  0  0  0  0  0  0
   -6.6082   -9.0902    0.0000 H   0  0  0  0  0  0  0  0  0  0  0  0
   -6.5035   -6.0920    0.0000 H   0  0  0  0  0  0  0  0  0  0  0  0
   -8.0026   -6.0397    0.0000 H   0  0  0  0  0  0  0  0  0  0  0  0
   -8.1073   -9.0378    0.0000 H   0  0  0  0  0  0  0  0  0  0  0  0
   -9.4232   -8.9807    0.0000 H   0  0  0  0  0  0  0  0  0  0  0  0
   -9.5016   -5.9873    0.0000 H   0  0  0  0  0  0  0  0  0  0  0  0
  -11.2618   -5.9487    0.0000 H   0  0  0  0  0  0  0  0  0  0  0  0
  -13.1839   -6.5732    0.0000 H   0  0  0  0  0  0  0  0  0  0  0  0
  -13.6617   -8.8211    0.0000 H   0  0  0  0  0  0  0  0  0  0  0  0
  -12.1598  -10.1734    0.0000 H   0  0  0  0  0  0  0  0  0  0  0  0
  -10.0530   -9.6285    0.0000 H   0  0  0  0  0  0  0  0  0  0  0  0
   -0.0442   -2.6480    0.0000 H   0  0  0  0  0  0  0  0  0  0  0  0
    0.9433   -3.2626    0.0000 H   0  0  0  0  0  0  0  0  0  0  0  0
    2.5961   -0.7656    0.0000 H   0  0  0  0  0  0  0  0  0  0  0  0
    4.2914   -3.4635    0.0000 H   0  0  0  0  0  0  0  0  0  0  0  0
    2.2424   -4.0126    0.0000 H   0  0  0  0  0  0  0  0  0  0  0  0
    3.8951   -1.5156    0.0000 H   0  0  0  0  0  0  0  0  0  0  0  0
  1  2  1  0
  2  3  1  0
  3  4  1  0
  3  5  1  0
  5  6  1  0
  6  7  1  0
  7  8  1  0
  8  9  1  0
  9 10  1  0
 10 11  1  0
 11 12  2  3
 12 13  1  0
 13 14  2  3
 14 15  1  0
 15 16  1  0
 16 17  1  0
 17 18  1  0
 18 19  1  0
 19 20  1  0
  8 21  1  0
 21 22  1  0
 22 23  1  0
 21  5  1  0
 20 18  1  0
  1 24  1  0
  1 25  1  0
  1 26  1  0
  2 27  1  0
  2 28  1  0
  3 29  1  1
  4 30  1  0
  4 31  1  0
  4 32  1  0
  5 33  1  1
  7 34  1  0
  7 35  1  0
  8 36  1  6
  9 37  1  0
  9 38  1  0
 10 39  1  0
 10 40  1  0
 11 41  1  0
 11 42  1  0
 12 43  1  0
 13 44  1  0
 14 45  1  0
 15 46  1  0
 15 47  1  0
 16 48  1  0
 16 49  1  0
 17 50  1  0
 17 51  1  0
 18 52  1  0
 19 53  1  0
 19 54  1  0
 20 55  1  0
 20 56  1  0
 21 57  1  1
 22 58  1  0
 22 59  1  0
 23 60  1  0
 23 61  1  0
 23 62  1  0
M  RAD  1  11   2
M  END
$$$$
