
     RDKit          2D

 40 48  0  0  0  0  0  0  0  0999 V2000
    0.4287    3.7676    0.0000 C   0  0  0  0  0  0  0  0  0  0  0  0
   -0.5153    4.9333    0.0000 N   0  0  0  0  0  0  0  0  0  0  0  0
   -1.9156    4.3957    0.0000 C   0  0  0  0  0  0  0  0  0  0  0  0
   -3.2521    5.0767    0.0000 C   0  0  0  0  0  0  0  0  0  0  0  0
   -4.5101    4.2597    0.0000 C   0  0  0  0  0  0  0  0  0  0  0  0
   -5.7681    3.4428    0.0000 C   0  0  0  0  0  0  0  0  0  0  0  0
   -4.4316    2.7618    0.0000 C   0  0  0  0  0  0  0  0  0  0  0  0
   -3.1318    2.7799    0.0000 C   0  0  0  0  0  0  0  0  0  0  0  0
   -1.8371    2.8978    0.0000 C   0  0  0  0  0  0  0  0  0  0  0  0
   -2.8978    1.8371    0.0000 O   0  0  0  0  0  0  0  0  0  0  0  0
   -2.5095    0.3882    0.0000 C   0  0  0  0  0  0  0  0  0  0  0  0
   -3.5702   -0.6724    0.0000 C   0  0  0  0  0  0  0  0  0  0  0  0
   -2.7098   -1.9012    0.0000 C   0  0  0  0  0  0  0  0  0  0  0  0
   -3.3438   -3.2606    0.0000 C   0  0  0  0  0  0  0  0  0  0  0  0
   -4.8381   -3.3914    0.0000 C   0  0  0  0  0  0  0  0  0  0  0  0
   -4.2041   -2.0319    0.0000 C   0  0  0  0  0  0  0  0  0  0  0  0
   -0.0000   -1.0607    0.0000 C   0  0  0  0  0  0  0  0  0  0  0  0
    1.0607    0.0000    0.0000 O   0  0  0  0  0  0  0  0  0  0  0  0
    0.0000    1.0607    0.0000 C   0  0  0  0  0  0  0  0  0  0  0  0
   -0.3882    2.5095    0.0000 C   0  0  0  0  0  0  0  0  0  0  0  0
   -1.0607    0.0000    0.0000 C   0  0  0  0  0  0  0  0  0  0  0  0
    1.9267    3.8461    0.0000 H   0  0  0  0  0  0  0  0  0  0  0  0
   -1.6551    5.8729    0.0000 H   0  0  0  0  0  0  0  0  0  0  0  0
   -4.2751    6.1737    0.0000 H   0  0  0  0  0  0  0  0  0  0  0  0
   -2.5022    6.3758    0.0000 H   0  0  0  0  0  0  0  0  0  0  0  0
   -5.3271    5.5178    0.0000 H   0  0  0  0  0  0  0  0  0  0  0  0
   -6.7911    4.5398    0.0000 H   0  0  0  0  0  0  0  0  0  0  0  0
   -6.6709    2.2448    0.0000 H   0  0  0  0  0  0  0  0  0  0  0  0
   -4.2524    3.5385    0.0000 H   0  0  0  0  0  0  0  0  0  0  0  0
   -1.8371    1.2639    0.0000 H   0  0  0  0  0  0  0  0  0  0  0  0
   -3.9978    0.8829    0.0000 H   0  0  0  0  0  0  0  0  0  0  0  0
   -4.7989    0.1879    0.0000 H   0  0  0  0  0  0  0  0  0  0  0  0
   -1.2108   -1.9535    0.0000 H   0  0  0  0  0  0  0  0  0  0  0  0
   -2.4834   -4.4893    0.0000 H   0  0  0  0  0  0  0  0  0  0  0  0
   -4.9688   -4.8856    0.0000 H   0  0  0  0  0  0  0  0  0  0  0  0
   -6.2870   -3.0031    0.0000 H   0  0  0  0  0  0  0  0  0  0  0  0
   -0.0000   -2.5607    0.0000 H   0  0  0  0  0  0  0  0  0  0  0  0
    1.3808    1.6467    0.0000 H   0  0  0  0  0  0  0  0  0  0  0  0
    1.1109    2.4572    0.0000 H   0  0  0  0  0  0  0  0  0  0  0  0
   -1.6467   -1.3808    0.0000 H   0  0  0  0  0  0  0  0  0  0  0  0
  1  2  2  0
  2  3  1  0
  3  4  1  0
  4  5  1  0
  5  6  1  0
  6  7  1  0
  7  8  1  0
  8  9  1  0
  9 10  1  0
 10 11  1  0
 11 12  1  0
 12 13  1  0
 13 14  1  0
 14 15  1  0
 15 16  1  0
 11 17  1  0
 17 18  1  0
 18 19  1  0
 19 20  1  0
 19 21  1  0
 20  1  1  0
  9  3  1  0
 21 11  1  0
  7  5  1  0
 20  9  1  0
 16 12  1  0
 21 17  1  0
 16 13  1  0
 16 14  1  0
  1 22  1  0
  3 23  1  0
  4 24  1  0
  4 25  1  0
  5 26  1  0
  6 27  1  0
  6 28  1  0
  7 29  1  0
  8 30  1  0
  8 31  1  0
 12 32  1  0
 13 33  1  0
 14 34  1  0
 15 35  1  0
 15 36  1  0
 17 37  1  0
 19 38  1  0
 20 39  1  0
 21 40  1  0
M  END
$$$$
