
     RDKit          2D

 37 39  0  0  0  0  0  0  0  0999 V2000
    2.7944    2.2981    0.0000 C   0  0  0  0  0  0  0  0  0  0  0  0
    1.8302    1.1491    0.0000 C   0  0  0  0  0  0  0  0  0  0  0  0
    0.8660    0.0000    0.0000 C   0  0  0  0  0  0  0  0  0  0  0  0
   -0.4330    0.7500    0.0000 C   0  0  0  0  0  0  0  0  0  0  0  0
   -0.4330   -0.7500    0.0000 C   0  0  0  0  0  0  0  0  0  0  0  0
    0.0800   -2.1595    0.0000 C   0  0  0  0  0  0  0  0  0  0  0  0
    0.5930   -3.5691    0.0000 C   0  0  0  0  0  0  0  0  0  0  0  0
    1.1061   -4.9786    0.0000 C   0  0  0  0  0  0  0  0  0  0  0  0
    2.0703   -6.1277    0.0000 C   0  0  0  0  0  0  0  0  0  0  0  0
    2.5833   -4.7181    0.0000 C   0  0  0  0  0  0  0  0  0  0  0  0
   -1.3295   -2.6726    0.0000 C   0  0  0  0  0  0  0  0  0  0  0  0
   -2.0795   -1.3735    0.0000 O   0  0  0  0  0  0  0  0  0  0  0  0
   -2.4786   -3.6368    0.0000 C   0  0  0  0  0  0  0  0  0  0  0  0
   -1.0690   -4.1498    0.0000 C   0  0  0  0  0  0  0  0  0  0  0  0
   -1.3295   -5.6270    0.0000 O   0  0  0  0  0  0  0  0  0  0  0  0
    3.7586    3.4472    0.0000 H   0  0  0  0  0  0  0  0  0  0  0  0
    1.6453    3.2623    0.0000 H   0  0  0  0  0  0  0  0  0  0  0  0
    3.9435    1.3340    0.0000 H   0  0  0  0  0  0  0  0  0  0  0  0
    2.9793    0.1849    0.0000 H   0  0  0  0  0  0  0  0  0  0  0  0
    0.9095    2.1364    0.0000 H   0  0  0  0  0  0  0  0  0  0  0  0
    1.8534   -0.9207    0.0000 H   0  0  0  0  0  0  0  0  0  0  0  0
   -1.9102    1.0105    0.0000 H   0  0  0  0  0  0  0  0  0  0  0  0
   -0.1294    2.0654    0.0000 H   0  0  0  0  0  0  0  0  0  0  0  0
   -1.4148   -0.6813    0.0000 H   0  0  0  0  0  0  0  0  0  0  0  0
    1.3954   -1.8559    0.0000 H   0  0  0  0  0  0  0  0  0  0  0  0
    1.7959   -2.9562    0.0000 H   0  0  0  0  0  0  0  0  0  0  0  0
   -0.0678   -4.0149    0.0000 H   0  0  0  0  0  0  0  0  0  0  0  0
   -0.0919   -5.8814    0.0000 H   0  0  0  0  0  0  0  0  0  0  0  0
    1.1061   -7.2768    0.0000 H   0  0  0  0  0  0  0  0  0  0  0  0
    3.3693   -6.8777    0.0000 H   0  0  0  0  0  0  0  0  0  0  0  0
    4.0605   -4.9786    0.0000 H   0  0  0  0  0  0  0  0  0  0  0  0
    2.7478   -3.3782    0.0000 H   0  0  0  0  0  0  0  0  0  0  0  0
   -3.5795   -1.3735    0.0000 H   0  0  0  0  0  0  0  0  0  0  0  0
   -3.6277   -2.6726    0.0000 H   0  0  0  0  0  0  0  0  0  0  0  0
   -3.2286   -4.9358    0.0000 H   0  0  0  0  0  0  0  0  0  0  0  0
    0.1098   -4.4438    0.0000 H   0  0  0  0  0  0  0  0  0  0  0  0
   -0.3066   -6.7241    0.0000 H   0  0  0  0  0  0  0  0  0  0  0  0
  1  2  1  0
  2  3  1  0
  3  4  1  0
  4  5  1  0
  5  6  1  0
  6  7  1  0
  7  8  1  0
  8  9  1  0
  9 10  1  0
  6 11  1  0
 11 12  1  0
 11 13  1  0
 13 14  1  0
 14 15  1  0
  5  3  1  0
 10  8  1  0
 14 11  1  0
  1 16  1  0
  1 17  1  0
  1 18  1  0
  2 19  1  0
  2 20  1  0
  3 21  1  0
  4 22  1  0
  4 23  1  0
  5 24  1  0
  6 25  1  0
  7 26  1  0
  7 27  1  0
  8 28  1  0
  9 29  1  0
  9 30  1  0
 10 31  1  0
 10 32  1  0
 12 33  1  0
 13 34  1  0
 13 35  1  0
 14 36  1  0
 15 37  1  0
M  END
$$$$
