
     RDKit          3D

 14 13  0  0  0  0  0  0  0  0999 V2000
   22.8070  -30.3104  -15.2831 O   0  0  0  0  0  0  0  0  0  0  0  0
   21.4242  -28.1599  -14.6151 P   0  0  0  0  0  0  0  0  0  0  0  0
   22.8919  -28.9257  -15.4314 O   0  0  0  0  0  0  0  0  0  0  0  0
   19.3064  -27.6388  -16.2973 O   0  0  0  0  0  0  0  0  0  0  0  0
   15.1809  -30.4131  -10.6912 O   0  0  0  0  0  0  0  0  0  0  0  0
   18.5837  -29.4281  -12.9635 P   0  0  0  0  0  0  0  0  0  0  0  0
   17.7703  -28.1374  -11.7765 O   0  0  0  0  0  0  0  0  0  0  0  0
   15.5906  -29.2700  -10.1388 O   0  0  0  0  0  0  0  0  0  0  0  0
   15.8197  -28.3154  -11.5512 P   0  0  0  0  0  0  0  0  0  0  0  0
   14.4856  -26.9434  -11.0818 C   0  0  0  0  0  0  0  0  0  0  0  0
   20.5988  -29.3119  -13.1597 C   0  0  0  0  0  0  0  0  0  0  0  0
   15.0933  -25.7138  -10.3273 C   0  0  0  0  0  0  0  0  0  0  0  0
   14.2565  -24.3429  -10.6328 C   0  0  0  0  0  0  0  0  0  0  0  0
   20.3855  -28.5544  -16.2065 C   0  0  0  0  0  0  0  0  0  0  0  0
  3  1  1  0
  3  2  1  0
  7  6  1  0
  8  5  1  0
  9  7  1  0
  9  8  1  0
 10  9  1  0
 11  2  1  0
 11  6  1  0
 12 10  1  0
 13 12  1  0
 14  2  1  0
 14  4  1  0
M  END
$$$$
