
     RDKit          2D

 61 66  0  0  0  0  0  0  0  0999 V2000
   -4.3470    2.2212    0.0000 B   0  0  0  0  0  0  0  0  0  0  0  0
   -4.0543    0.7500    0.0000 S   0  0  0  0  0  5  0  0  0  0  0  0
   -5.3015   -0.0834    0.0000 C   0  0  0  0  0  0  0  0  0  0  0  0
   -2.9937    1.8107    0.0000 C   0  0  0  0  0  0  0  0  0  0  0  0
   -3.5671    2.3644    0.0000 O   0  0  0  0  0  1  0  0  0  0  0  0
   -1.4937    1.8107    0.0000 C   0  0  0  0  0  0  0  0  0  0  0  0
   -0.4330    0.7500    0.0000 C   0  0  0  0  0  0  0  0  0  0  0  0
    0.8660    0.0000    0.0000 C   0  0  0  0  0  0  0  0  0  0  0  0
   -0.4330   -0.7500    0.0000 C   0  0  0  0  0  0  0  0  0  0  0  0
   -1.4937   -1.8107    0.0000 C   0  0  0  0  0  0  0  0  0  0  0  0
   -0.9196   -3.1965    0.0000 O   0  0  0  0  0  0  0  0  0  0  0  0
   -2.9937   -1.8107    0.0000 C   0  0  0  0  0  0  0  0  0  0  0  0
   -4.0543   -0.7500    0.0000 C   0  0  0  0  0  0  0  0  0  0  0  0
   -5.3957   -1.4214    0.0000 C   0  0  0  0  0  0  0  0  0  0  0  0
   -6.8956   -1.4036    0.0000 C   0  0  0  0  0  0  0  0  0  0  0  0
   -6.1611   -2.7114    0.0000 C   0  0  0  0  0  0  0  0  0  0  0  0
   -6.1075   -4.2105    0.0000 N   0  0  0  0  0  0  0  0  0  0  0  0
   -6.6418   -5.6121    0.0000 C   0  0  0  0  0  0  0  0  0  0  0  0
   -5.4738   -6.5533    0.0000 C   0  0  0  0  0  0  0  0  0  0  0  0
   -3.8662   -6.0166    0.0000 C   0  0  0  0  0  0  0  0  0  0  0  0
   -5.2521   -5.4426    0.0000 C   0  0  0  0  0  0  0  0  0  0  0  0
   -2.3901   -5.7503    0.0000 C   0  0  0  0  0  0  0  0  0  0  0  0
   -1.2922   -4.7282    0.0000 C   0  0  0  0  0  0  0  0  0  0  0  0
   -0.9213   -3.2748    0.0000 C   0  0  0  0  0  0  0  0  0  0  0  0
    0.0691   -4.4014    0.0000 O   0  0  0  0  0  0  0  0  0  0  0  0
   -0.6963   -5.6914    0.0000 C   0  0  0  0  0  0  0  0  0  0  0  0
   -0.1026   -7.0689    0.0000 C   0  0  0  0  0  0  0  0  0  0  0  0
   -3.3482    3.3403    0.0000 H   0  0  0  0  0  0  0  0  0  0  0  0
   -5.7674    2.7033    0.0000 H   0  0  0  0  0  0  0  0  0  0  0  0
   -5.3598    1.4887    0.0000 H   0  0  0  0  0  0  0  0  0  0  0  0
   -6.7133   -0.5902    0.0000 H   0  0  0  0  0  0  0  0  0  0  0  0
   -6.2807    1.0530    0.0000 H   0  0  0  0  0  0  0  0  0  0  0  0
   -4.7947   -1.4951    0.0000 H   0  0  0  0  0  0  0  0  0  0  0  0
   -2.6054    3.2595    0.0000 H   0  0  0  0  0  0  0  0  0  0  0  0
   -1.7024    3.2961    0.0000 H   0  0  0  0  0  0  0  0  0  0  0  0
   -0.1946    2.5607    0.0000 H   0  0  0  0  0  0  0  0  0  0  0  0
    0.4801    1.9400    0.0000 H   0  0  0  0  0  0  0  0  0  0  0  0
    1.8302    1.1491    0.0000 H   0  0  0  0  0  0  0  0  0  0  0  0
    1.8302   -1.1491    0.0000 H   0  0  0  0  0  0  0  0  0  0  0  0
    0.4801   -1.9400    0.0000 H   0  0  0  0  0  0  0  0  0  0  0  0
   -2.0936   -4.1302    0.0000 H   0  0  0  0  0  0  0  0  0  0  0  0
   -2.6054   -3.2595    0.0000 H   0  0  0  0  0  0  0  0  0  0  0  0
   -4.2927   -2.5607    0.0000 H   0  0  0  0  0  0  0  0  0  0  0  0
   -5.2601   -1.6423    0.0000 H   0  0  0  0  0  0  0  0  0  0  0  0
   -6.0757   -0.0844    0.0000 H   0  0  0  0  0  0  0  0  0  0  0  0
   -7.1384    0.0766    0.0000 H   0  0  0  0  0  0  0  0  0  0  0  0
   -8.3111   -1.8998    0.0000 H   0  0  0  0  0  0  0  0  0  0  0  0
   -7.6052   -3.1169    0.0000 H   0  0  0  0  0  0  0  0  0  0  0  0
   -7.9799   -4.9343    0.0000 H   0  0  0  0  0  0  0  0  0  0  0  0
   -7.4557   -6.8721    0.0000 H   0  0  0  0  0  0  0  0  0  0  0  0
   -6.5319   -7.6165    0.0000 H   0  0  0  0  0  0  0  0  0  0  0  0
   -4.6759   -7.8235    0.0000 H   0  0  0  0  0  0  0  0  0  0  0  0
   -3.8436   -7.5165    0.0000 H   0  0  0  0  0  0  0  0  0  0  0  0
   -6.5552   -6.1855    0.0000 H   0  0  0  0  0  0  0  0  0  0  0  0
   -5.7009   -6.8739    0.0000 H   0  0  0  0  0  0  0  0  0  0  0  0
   -1.7186   -7.0917    0.0000 H   0  0  0  0  0  0  0  0  0  0  0  0
   -0.3715   -5.9124    0.0000 H   0  0  0  0  0  0  0  0  0  0  0  0
    0.1884   -4.9688    0.0000 H   0  0  0  0  0  0  0  0  0  0  0  0
    0.5778   -3.2212    0.0000 H   0  0  0  0  0  0  0  0  0  0  0  0
   -0.9986   -8.2718    0.0000 H   0  0  0  0  0  0  0  0  0  0  0  0
    1.3873   -7.2434    0.0000 H   0  0  0  0  0  0  0  0  0  0  0  0
  1  2  1  0
  2  3  1  0
  2  4  1  0
  4  5  1  0
  4  6  1  0
  6  7  1  0
  7  8  1  0
  8  9  1  0
  9 10  1  0
 10 11  1  6
 10 12  1  0
 12 13  1  0
 13 14  1  0
 14 15  1  0
 15 16  1  0
 16 17  1  0
 17 18  1  0
 18 19  1  0
 19 20  1  0
 20 21  1  0
 20 22  1  0
 22 23  1  0
 23 24  1  0
 24 25  1  0
 25 26  1  0
 26 27  2  3
 13  2  1  0
 16 14  1  0
 21 17  1  0
 26 22  1  0
  9  7  1  0
 24 10  1  0
  1 28  1  0
  1 29  1  0
  2 30  1  0
  3 31  1  0
  3 32  1  0
  3 33  1  0
  4 34  1  0
  6 35  1  0
  6 36  1  0
  7 37  1  6
  8 38  1  0
  8 39  1  0
  9 40  1  6
 11 41  1  0
 12 42  1  0
 12 43  1  0
 13 44  1  1
 14 45  1  6
 15 46  1  0
 15 47  1  0
 16 48  1  6
 18 49  1  0
 18 50  1  0
 19 51  1  0
 19 52  1  0
 20 53  1  6
 21 54  1  0
 21 55  1  0
 22 56  1  6
 23 57  1  0
 23 58  1  0
 24 59  1  6
 27 60  1  0
 27 61  1  0
M  RAD  2   2   2   5   2
M  END
$$$$
