
     RDKit          2D

104114  0  0  0  0  0  0  0  0999 V2000
    3.4641    0.0000    0.0000 C   0  0  0  0  0  0  0  0  0  0  0  0
    2.1651    0.7500    0.0000 B   0  0  0  0  0  0  0  0  0  0  0  0
    2.1651    2.2500    0.0000 C   0  0  0  0  0  0  0  0  0  0  0  0
    0.8660    3.0000    0.0000 C   0  0  0  0  0  0  0  0  0  0  0  0
   -0.4330    2.2500    0.0000 C   0  0  0  0  0  0  0  0  0  0  0  0
   -0.4330    0.7500    0.0000 C   0  0  0  0  0  0  0  0  0  0  0  0
    0.8660    0.0000    0.0000 C   0  0  0  0  0  0  0  0  0  0  0  0
   -0.4330   -0.7500    0.0000 C   0  0  0  0  0  0  0  0  0  0  0  0
   -1.7321   -1.5000    0.0000 C   0  0  0  0  0  0  0  0  0  0  0  0
   -2.6962   -2.6491    0.0000 F   0  0  0  0  0  0  0  0  0  0  0  0
   -3.0311   -0.7500    0.0000 C   0  0  0  0  0  0  0  0  0  0  0  0
   -3.0311    0.7500    0.0000 C   0  0  0  0  0  0  0  0  0  0  0  0
   -1.7321    1.5000    0.0000 C   0  0  0  0  0  0  0  0  0  0  0  0
   -3.0311    2.2500    0.0000 C   0  0  0  0  0  0  0  0  0  0  0  0
   -4.5083    2.5105    0.0000 C   0  0  0  0  0  0  0  0  0  0  0  0
   -5.8073    3.2605    0.0000 C   0  0  0  0  0  0  0  0  0  0  0  0
   -4.5083    4.0105    0.0000 C   0  0  0  0  0  0  0  0  0  0  0  0
   -5.0213    5.4200    0.0000 C   0  0  0  0  0  0  0  0  0  0  0  0
   -5.5344    6.8296    0.0000 C   0  0  0  0  0  0  0  0  0  0  0  0
   -4.0460    7.0161    0.0000 C   0  0  0  0  0  0  0  0  0  0  0  0
   -2.5576    7.2026    0.0000 C   0  0  0  0  0  0  0  0  0  0  0  0
   -4.2325    8.5044    0.0000 C   0  0  0  0  0  0  0  0  0  0  0  0
   -5.7209    8.3179    0.0000 C   0  0  0  0  0  0  0  0  0  0  0  0
   -5.9074    9.8063    0.0000 C   0  0  0  0  0  0  0  0  0  0  0  0
   -4.4190    9.9928    0.0000 C   0  0  0  0  0  0  0  0  0  0  0  0
   -2.9307   10.1793    0.0000 C   0  0  0  0  0  0  0  0  0  0  0  0
   -1.4423   10.3658    0.0000 C   0  0  0  0  0  0  0  0  0  0  0  0
   -3.1172   11.6677    0.0000 C   0  0  0  0  0  0  0  0  0  0  0  0
   -1.6288   11.8542    0.0000 C   0  0  0  0  0  0  0  0  0  0  0  0
   -1.8153   13.3425    0.0000 C   0  0  0  0  0  0  0  0  0  0  0  0
   -3.3037   13.1560    0.0000 C   0  0  0  0  0  0  0  0  0  0  0  0
   -4.7921   12.9695    0.0000 O   0  0  0  0  0  0  0  0  0  0  0  0
   -5.3850    8.3221    0.0000 C   0  0  0  0  0  0  0  0  0  0  0  0
   -6.4588    9.3695    0.0000 C   0  0  0  0  0  0  0  0  0  0  0  0
   -5.1988   10.1833    0.0000 C   0  0  0  0  0  0  0  0  0  0  0  0
   -4.0473   11.1446    0.0000 F   0  0  0  0  0  0  0  0  0  0  0  0
   -7.9472    9.1829    0.0000 N   0  0  0  0  0  0  0  0  0  0  0  0
   -8.7293    7.9030    0.0000 C   0  0  0  0  0  0  0  0  0  0  0  0
  -10.2284    7.8507    0.0000 C   0  0  0  0  0  0  0  0  0  0  0  0
  -10.6419    6.4088    0.0000 C   0  0  0  0  0  0  0  0  0  0  0  0
  -10.7465    4.9124    0.0000 C   0  0  0  0  0  0  0  0  0  0  0  0
   -9.5029    4.0736    0.0000 N   0  0  0  0  0  0  0  0  0  0  0  0
   -9.3983    5.5700    0.0000 C   0  0  0  0  0  0  0  0  0  0  0  0
   -8.2163    6.4935    0.0000 C   0  0  0  0  0  0  0  0  0  0  0  0
   -6.7944    6.0157    0.0000 C   0  0  0  0  0  0  0  0  0  0  0  0
    4.7631   -0.7500    0.0000 H   0  0  0  0  0  0  0  0  0  0  0  0
    2.7141   -1.2990    0.0000 H   0  0  0  0  0  0  0  0  0  0  0  0
    4.3669    1.1979    0.0000 H   0  0  0  0  0  0  0  0  0  0  0  0
    3.6630    2.1715    0.0000 H   0  0  0  0  0  0  0  0  0  0  0  0
    2.6781    3.6595    0.0000 H   0  0  0  0  0  0  0  0  0  0  0  0
    1.8302    4.1491    0.0000 H   0  0  0  0  0  0  0  0  0  0  0  0
   -0.0982    4.1491    0.0000 H   0  0  0  0  0  0  0  0  0  0  0  0
   -0.9460    3.6595    0.0000 H   0  0  0  0  0  0  0  0  0  0  0  0
   -1.9294    2.3547    0.0000 H   0  0  0  0  0  0  0  0  0  0  0  0
   -0.1760    1.0790    0.0000 H   0  0  0  0  0  0  0  0  0  0  0  0
   -1.4751    0.3290    0.0000 H   0  0  0  0  0  0  0  0  0  0  0  0
   -0.7679   -2.6491    0.0000 H   0  0  0  0  0  0  0  0  0  0  0  0
   -4.5083   -0.4895    0.0000 H   0  0  0  0  0  0  0  0  0  0  0  0
   -3.5441   -2.1595    0.0000 H   0  0  0  0  0  0  0  0  0  0  0  0
   -4.5199    0.5672    0.0000 H   0  0  0  0  0  0  0  0  0  0  0  0
   -2.1454    0.0581    0.0000 H   0  0  0  0  0  0  0  0  0  0  0  0
   -2.3501    3.5865    0.0000 H   0  0  0  0  0  0  0  0  0  0  0  0
   -5.1893    1.1740    0.0000 H   0  0  0  0  0  0  0  0  0  0  0  0
   -6.7715    2.1114    0.0000 H   0  0  0  0  0  0  0  0  0  0  0  0
   -7.0209    4.1421    0.0000 H   0  0  0  0  0  0  0  0  0  0  0  0
   -3.0739    4.4491    0.0000 H   0  0  0  0  0  0  0  0  0  0  0  0
   -3.5598    5.7574    0.0000 H   0  0  0  0  0  0  0  0  0  0  0  0
   -6.4309    4.9070    0.0000 H   0  0  0  0  0  0  0  0  0  0  0  0
   -3.6795    5.5615    0.0000 H   0  0  0  0  0  0  0  0  0  0  0  0
   -1.0693    7.3891    0.0000 H   0  0  0  0  0  0  0  0  0  0  0  0
   -2.3711    5.7142    0.0000 H   0  0  0  0  0  0  0  0  0  0  0  0
   -2.3785    8.6918    0.0000 H   0  0  0  0  0  0  0  0  0  0  0  0
   -2.7442    8.6909    0.0000 H   0  0  0  0  0  0  0  0  0  0  0  0
   -7.2092    8.1314    0.0000 H   0  0  0  0  0  0  0  0  0  0  0  0
   -5.9000    6.8286    0.0000 H   0  0  0  0  0  0  0  0  0  0  0  0
   -6.2739   11.2608    0.0000 H   0  0  0  0  0  0  0  0  0  0  0  0
   -7.3967    9.9854    0.0000 H   0  0  0  0  0  0  0  0  0  0  0  0
   -4.4227   11.4928    0.0000 H   0  0  0  0  0  0  0  0  0  0  0  0
   -2.3896    8.7803    0.0000 H   0  0  0  0  0  0  0  0  0  0  0  0
    0.0460   10.5523    0.0000 H   0  0  0  0  0  0  0  0  0  0  0  0
   -1.4386    8.8658    0.0000 H   0  0  0  0  0  0  0  0  0  0  0  0
   -1.0758    8.9113    0.0000 H   0  0  0  0  0  0  0  0  0  0  0  0
   -1.7182   12.2088    0.0000 H   0  0  0  0  0  0  0  0  0  0  0  0
   -0.1405   12.0407    0.0000 H   0  0  0  0  0  0  0  0  0  0  0  0
   -1.0877   10.4552    0.0000 H   0  0  0  0  0  0  0  0  0  0  0  0
   -2.0019   14.8309    0.0000 H   0  0  0  0  0  0  0  0  0  0  0  0
   -0.3270   13.5290    0.0000 H   0  0  0  0  0  0  0  0  0  0  0  0
   -3.4902   14.6444    0.0000 H   0  0  0  0  0  0  0  0  0  0  0  0
   -5.6978   14.1652    0.0000 H   0  0  0  0  0  0  0  0  0  0  0  0
   -3.8898    8.2026    0.0000 H   0  0  0  0  0  0  0  0  0  0  0  0
   -4.7647    9.6878    0.0000 H   0  0  0  0  0  0  0  0  0  0  0  0
   -6.9718   10.7790    0.0000 H   0  0  0  0  0  0  0  0  0  0  0  0
   -5.8529   11.5331    0.0000 H   0  0  0  0  0  0  0  0  0  0  0  0
   -3.9874    9.2987    0.0000 H   0  0  0  0  0  0  0  0  0  0  0  0
   -8.7610   10.4430    0.0000 H   0  0  0  0  0  0  0  0  0  0  0  0
   -9.3223    9.2808    0.0000 H   0  0  0  0  0  0  0  0  0  0  0  0
  -10.3070    9.3486    0.0000 H   0  0  0  0  0  0  0  0  0  0  0  0
  -11.7056    8.1111    0.0000 H   0  0  0  0  0  0  0  0  0  0  0  0
  -12.1191    6.6692    0.0000 H   0  0  0  0  0  0  0  0  0  0  0  0
  -12.0947    4.2549    0.0000 H   0  0  0  0  0  0  0  0  0  0  0  0
   -8.8454    2.7254    0.0000 H   0  0  0  0  0  0  0  0  0  0  0  0
   -8.1453    4.9951    0.0000 H   0  0  0  0  0  0  0  0  0  0  0  0
   -7.5766    4.7358    0.0000 H   0  0  0  0  0  0  0  0  0  0  0  0
   -5.8563    4.8453    0.0000 H   0  0  0  0  0  0  0  0  0  0  0  0
  1  2  1  0
  2  3  1  0
  3  4  1  0
  4  5  1  0
  6  5  1  6
  6  7  1  0
  7  8  1  0
  8  9  1  0
  9 10  1  0
  9 11  1  0
 11 12  1  0
 12 13  1  0
 13 14  1  0
 14 15  1  0
 15 16  1  0
 16 17  1  0
 17 18  1  0
 19 18  1  1
 19 20  1  0
 20 21  1  0
 20 22  1  0
 22 23  1  0
 23 24  1  0
 24 25  1  0
 25 26  1  0
 26 27  1  0
 26 28  1  0
 28 29  1  0
 29 30  1  0
 30 31  1  0
 31 32  1  0
 19 33  1  0
 33 34  1  0
 34 35  1  0
 35 36  1  0
 34 37  1  0
 37 38  1  0
 38 39  1  0
 39 40  1  0
 40 41  1  0
 41 42  1  0
 43 42  1  1
 43 44  1  0
 44 45  1  0
  7  2  1  0
 14 12  1  0
 17 15  1  0
 45 19  1  0
  8  6  1  0
 25 22  1  0
 31 28  1  0
 44 38  1  0
 13  6  1  0
 43 40  1  0
 43 41  1  0
  1 46  1  0
  1 47  1  0
  1 48  1  0
  3 49  1  0
  3 50  1  0
  4 51  1  0
  4 52  1  0
  5 53  1  0
  5 54  1  0
  7 55  1  6
  8 56  1  1
  9 57  1  6
 11 58  1  0
 11 59  1  0
 12 60  1  6
 13 61  1  6
 14 62  1  6
 15 63  1  6
 16 64  1  0
 16 65  1  0
 17 66  1  1
 18 67  1  0
 18 68  1  0
 20 69  1  1
 21 70  1  0
 21 71  1  0
 21 72  1  0
 22 73  1  1
 23 74  1  0
 23 75  1  0
 24 76  1  0
 24 77  1  0
 25 78  1  6
 26 79  1  1
 27 80  1  0
 27 81  1  0
 27 82  1  0
 28 83  1  6
 29 84  1  0
 29 85  1  0
 30 86  1  0
 30 87  1  0
 31 88  1  1
 32 89  1  0
 33 90  1  0
 33 91  1  0
 34 92  1  1
 35 93  1  0
 35 94  1  0
 37 95  1  0
 38 96  1  1
 39 97  1  0
 39 98  1  0
 40 99  1  1
 41100  1  6
 42101  1  0
 44102  1  6
 45103  1  0
 45104  1  0
M  END
$$$$
