
     RDKit          2D

 33 36  0  0  0  0  0  0  0  0999 V2000
   -5.2190    0.0000    0.0000 C   0  0  0  0  0  0  0  0  0  0  0  0
   -4.5682   -1.3515    0.0000 C   0  0  0  0  0  0  0  0  0  0  0  0
   -3.1058   -1.6852    0.0000 C   0  0  0  0  0  0  0  0  0  0  0  0
   -1.9330   -0.7500    0.0000 C   0  0  0  0  0  0  0  0  0  0  0  0
   -1.9330    0.7500    0.0000 C   0  0  0  0  0  0  0  0  0  0  0  0
   -3.1058    1.6852    0.0000 C   0  0  0  0  0  0  0  0  0  0  0  0
   -4.5682    1.3515    0.0000 C   0  0  0  0  0  0  0  0  0  0  0  0
   -0.4330    0.7500    0.0000 C   0  0  0  0  0  0  0  0  0  0  0  0
    0.8660    0.0000    0.0000 C   0  0  0  0  0  0  0  0  0  0  0  0
   -0.4330   -0.7500    0.0000 C   0  0  0  0  0  0  0  0  0  0  0  0
   -0.0448   -2.1989    0.0000 C   0  0  0  0  0  0  0  0  0  0  0  0
    0.8156   -3.4276    0.0000 C   0  0  0  0  0  0  0  0  0  0  0  0
    1.4495   -2.0682    0.0000 C   0  0  0  0  0  0  0  0  0  0  0  0
   -6.4970   -0.7853    0.0000 H   0  0  0  0  0  0  0  0  0  0  0  0
   -6.4970    0.7853    0.0000 H   0  0  0  0  0  0  0  0  0  0  0  0
   -4.7510   -2.8403    0.0000 H   0  0  0  0  0  0  0  0  0  0  0  0
   -5.9790   -1.8610    0.0000 H   0  0  0  0  0  0  0  0  0  0  0  0
   -2.1942   -2.8765    0.0000 H   0  0  0  0  0  0  0  0  0  0  0  0
   -3.5870   -3.1059    0.0000 H   0  0  0  0  0  0  0  0  0  0  0  0
   -1.4376   -2.1658    0.0000 H   0  0  0  0  0  0  0  0  0  0  0  0
   -1.2687    2.0949    0.0000 H   0  0  0  0  0  0  0  0  0  0  0  0
   -3.5870    3.1059    0.0000 H   0  0  0  0  0  0  0  0  0  0  0  0
   -2.0558    2.7564    0.0000 H   0  0  0  0  0  0  0  0  0  0  0  0
   -5.9790    1.8610    0.0000 H   0  0  0  0  0  0  0  0  0  0  0  0
   -4.7510    2.8403    0.0000 H   0  0  0  0  0  0  0  0  0  0  0  0
   -0.0448    2.1989    0.0000 H   0  0  0  0  0  0  0  0  0  0  0  0
    1.8302    1.1491    0.0000 H   0  0  0  0  0  0  0  0  0  0  0  0
    1.4490   -0.5436    0.0000 H   0  0  0  0  0  0  0  0  0  0  0  0
   -1.2105   -3.1429    0.0000 H   0  0  0  0  0  0  0  0  0  0  0  0
   -0.2451   -4.4883    0.0000 H   0  0  0  0  0  0  0  0  0  0  0  0
    2.0443   -4.2880    0.0000 H   0  0  0  0  0  0  0  0  0  0  0  0
    2.8984   -2.4564    0.0000 H   0  0  0  0  0  0  0  0  0  0  0  0
    1.6153   -1.2884    0.0000 H   0  0  0  0  0  0  0  0  0  0  0  0
  1  2  1  0
  2  3  1  0
  3  4  1  0
  4  5  1  0
  5  6  1  0
  6  7  1  0
  5  8  1  0
  8  9  1  0
  9 10  1  0
 10 11  1  6
 11 12  1  0
 12 13  1  0
  7  1  1  0
 10  8  1  0
 13 11  1  0
 10  4  1  0
  1 14  1  0
  1 15  1  0
  2 16  1  0
  2 17  1  0
  3 18  1  0
  3 19  1  0
  4 20  1  6
  5 21  1  6
  6 22  1  0
  6 23  1  0
  7 24  1  0
  7 25  1  0
  8 26  1  1
  9 27  1  0
  9 28  1  0
 11 29  1  0
 12 30  1  0
 12 31  1  0
 13 32  1  0
 13 33  1  0
M  END
$$$$
