
     RDKit          2D

 55 56  0  0  0  0  0  0  0  0999 V2000
    2.6491    0.9642    0.0000 C   0  0  0  0  0  0  0  0  0  0  0  0
    1.5000    0.0000    0.0000 C   0  0  0  0  0  0  0  0  0  0  0  0
    0.7500   -1.2990    0.0000 C   0  0  0  0  0  0  0  0  0  0  0  0
   -0.7500   -1.2990    0.0000 C   0  0  0  0  0  0  0  0  0  0  0  0
   -0.4895   -2.7762    0.0000 C   0  0  0  0  0  0  0  0  0  0  0  0
   -0.7500   -4.2535    0.0000 C   0  0  0  0  0  0  0  0  0  0  0  0
   -1.8991   -3.2893    0.0000 C   0  0  0  0  0  0  0  0  0  0  0  0
   -3.0481   -4.2535    0.0000 C   0  0  0  0  0  0  0  0  0  0  0  0
   -4.1972   -5.2176    0.0000 C   0  0  0  0  0  0  0  0  0  0  0  0
   -5.3463   -6.1818    0.0000 C   0  0  0  0  0  0  0  0  0  0  0  0
   -6.4953   -7.1460    0.0000 O   0  0  0  0  0  0  0  0  0  0  0  0
   -4.3821   -7.3309    0.0000 O   0  0  0  0  0  0  0  0  0  0  0  0
   -2.6491   -1.9902    0.0000 C   0  0  0  0  0  0  0  0  0  0  0  0
   -3.3991   -0.6912    0.0000 C   0  0  0  0  0  0  0  0  0  0  0  0
   -4.1491    0.6078    0.0000 N   0  0  0  0  0  0  0  0  0  0  0  0
   -4.6981   -1.4412    0.0000 O   0  0  0  0  0  0  0  0  0  0  0  0
   -1.5000    0.0000    0.0000 C   0  0  0  0  0  0  0  0  0  0  0  0
   -0.7500    1.2990    0.0000 C   0  0  0  0  0  0  0  0  0  0  0  0
    0.7500    1.2990    0.0000 N   0  0  0  0  0  0  0  0  0  0  0  0
    1.5000    2.5981    0.0000 C   0  0  0  0  0  0  0  0  0  0  0  0
    2.2500    3.8971    0.0000 C   0  0  0  0  0  0  0  0  0  0  0  0
    3.0000    5.1962    0.0000 N   0  0  0  0  0  0  0  0  0  0  0  0
    3.7981    1.9284    0.0000 H   0  0  0  0  0  0  0  0  0  0  0  0
    2.1165    2.0562    0.0000 H   0  0  0  0  0  0  0  0  0  0  0  0
    3.6132   -0.1849    0.0000 H   0  0  0  0  0  0  0  0  0  0  0  0
    2.6491   -0.9642    0.0000 H   0  0  0  0  0  0  0  0  0  0  0  0
    2.1595   -1.8121    0.0000 H   0  0  0  0  0  0  0  0  0  0  0  0
    0.7083   -2.0951    0.0000 H   0  0  0  0  0  0  0  0  0  0  0  0
   -1.9584   -1.4260    0.0000 H   0  0  0  0  0  0  0  0  0  0  0  0
    0.3017   -2.8734    0.0000 H   0  0  0  0  0  0  0  0  0  0  0  0
    0.6595   -4.7665    0.0000 H   0  0  0  0  0  0  0  0  0  0  0  0
   -1.3361   -5.6342    0.0000 H   0  0  0  0  0  0  0  0  0  0  0  0
   -4.1452   -3.2305    0.0000 H   0  0  0  0  0  0  0  0  0  0  0  0
   -2.2312   -5.5115    0.0000 H   0  0  0  0  0  0  0  0  0  0  0  0
   -5.1614   -4.0686    0.0000 H   0  0  0  0  0  0  0  0  0  0  0  0
   -3.2330   -6.3667    0.0000 H   0  0  0  0  0  0  0  0  0  0  0  0
   -6.3104   -5.0328    0.0000 H   0  0  0  0  0  0  0  0  0  0  0  0
   -7.9049   -6.6330    0.0000 H   0  0  0  0  0  0  0  0  0  0  0  0
   -4.8951   -8.7404    0.0000 H   0  0  0  0  0  0  0  0  0  0  0  0
   -4.0298   -2.5763    0.0000 H   0  0  0  0  0  0  0  0  0  0  0  0
   -1.5701   -0.9482    0.0000 H   0  0  0  0  0  0  0  0  0  0  0  0
   -2.3201    0.3508    0.0000 H   0  0  0  0  0  0  0  0  0  0  0  0
   -5.6491    0.6078    0.0000 H   0  0  0  0  0  0  0  0  0  0  0  0
   -3.3991    1.9069    0.0000 H   0  0  0  0  0  0  0  0  0  0  0  0
   -5.9971   -0.6912    0.0000 H   0  0  0  0  0  0  0  0  0  0  0  0
   -2.6491   -0.9642    0.0000 H   0  0  0  0  0  0  0  0  0  0  0  0
   -2.6491    0.9642    0.0000 H   0  0  0  0  0  0  0  0  0  0  0  0
   -2.1595    1.8121    0.0000 H   0  0  0  0  0  0  0  0  0  0  0  0
   -0.6715    2.7970    0.0000 H   0  0  0  0  0  0  0  0  0  0  0  0
    0.3021    3.5008    0.0000 H   0  0  0  0  0  0  0  0  0  0  0  0
    2.7990    1.8481    0.0000 H   0  0  0  0  0  0  0  0  0  0  0  0
    0.9510    4.6471    0.0000 H   0  0  0  0  0  0  0  0  0  0  0  0
    3.5490    3.1471    0.0000 H   0  0  0  0  0  0  0  0  0  0  0  0
    4.5000    5.1962    0.0000 H   0  0  0  0  0  0  0  0  0  0  0  0
    2.2500    6.4952    0.0000 H   0  0  0  0  0  0  0  0  0  0  0  0
  1  2  1  0
  2  3  1  0
  3  4  1  0
  4  5  1  0
  5  6  1  0
  6  7  1  0
  7  8  1  0
  8  9  1  0
  9 10  1  0
 10 11  1  0
 10 12  1  0
  7 13  1  0
 13 14  1  0
 14 15  1  0
 14 16  1  0
  4 17  1  0
 17 18  1  0
 18 19  1  0
 19 20  1  0
 20 21  1  0
 21 22  1  0
 19  2  1  0
  7  5  1  0
  1 23  1  0
  1 24  1  0
  1 25  1  0
  2 26  1  0
  3 27  1  0
  3 28  1  0
  4 29  1  0
  5 30  1  0
  6 31  1  0
  6 32  1  0
  8 33  1  0
  8 34  1  0
  9 35  1  0
  9 36  1  0
 10 37  1  0
 11 38  1  0
 12 39  1  0
 13 40  1  0
 13 41  1  0
 14 42  1  0
 15 43  1  0
 15 44  1  0
 16 45  1  0
 17 46  1  0
 17 47  1  0
 18 48  1  0
 18 49  1  0
 20 50  1  0
 20 51  1  0
 21 52  1  0
 21 53  1  0
 22 54  1  0
 22 55  1  0
M  END
$$$$
