
     RDKit          2D

 38 39  0  0  0  0  0  0  0  0999 V2000
   -1.7321    1.5000    0.0000 C   0  0  0  0  0  0  0  0  0  0  0  0
   -0.4330    0.7500    0.0000 C   0  0  0  0  0  0  0  0  0  0  0  0
    0.8660    0.0000    0.0000 C   0  0  0  0  0  0  0  0  0  0  0  0
    1.8302    1.1491    0.0000 C   0  0  0  0  0  0  0  0  0  0  0  0
    3.3074    0.8886    0.0000 C   0  0  0  0  0  0  0  0  0  0  0  0
    4.2716    2.0377    0.0000 C   0  0  0  0  0  0  0  0  0  0  0  0
    5.2358    3.1867    0.0000 C   0  0  0  0  0  0  0  0  0  0  0  0
    6.2000    4.3358    0.0000 C   0  0  0  0  0  0  0  0  0  0  0  0
    7.1641    5.4849    0.0000 C   0  0  0  0  0  0  0  0  0  0  0  0
    8.1283    6.6339    0.0000 N   0  0  0  0  0  0  0  0  0  0  0  0
    9.6055    6.3735    0.0000 N   0  0  0  0  0  0  0  0  0  0  0  0
   10.5697    7.5225    0.0000 C   0  0  0  0  0  0  0  0  0  0  0  0
   12.0469    7.2620    0.0000 O   0  0  0  0  0  0  0  0  0  0  0  0
    1.8302   -1.1491    0.0000 C   0  0  0  0  0  0  0  0  0  0  0  0
    1.3172   -2.5586    0.0000 C   0  0  0  0  0  0  0  0  0  0  0  0
    0.3530   -1.4095    0.0000 C   0  0  0  0  0  0  0  0  0  0  0  0
   -3.0311    2.2500    0.0000 H   0  0  0  0  0  0  0  0  0  0  0  0
   -0.9821    2.7990    0.0000 H   0  0  0  0  0  0  0  0  0  0  0  0
   -2.4821    0.2010    0.0000 H   0  0  0  0  0  0  0  0  0  0  0  0
    0.3170    2.0490    0.0000 H   0  0  0  0  0  0  0  0  0  0  0  0
   -1.1830   -0.5490    0.0000 H   0  0  0  0  0  0  0  0  0  0  0  0
    1.3172    2.5586    0.0000 H   0  0  0  0  0  0  0  0  0  0  0  0
    3.9203   -0.3142    0.0000 H   0  0  0  0  0  0  0  0  0  0  0  0
    5.4207    1.0735    0.0000 H   0  0  0  0  0  0  0  0  0  0  0  0
    3.1225    3.0018    0.0000 H   0  0  0  0  0  0  0  0  0  0  0  0
    4.0867    4.1509    0.0000 H   0  0  0  0  0  0  0  0  0  0  0  0
    6.3848    2.2225    0.0000 H   0  0  0  0  0  0  0  0  0  0  0  0
    7.3490    3.3716    0.0000 H   0  0  0  0  0  0  0  0  0  0  0  0
    5.0509    5.3000    0.0000 H   0  0  0  0  0  0  0  0  0  0  0  0
    6.0151    6.4490    0.0000 H   0  0  0  0  0  0  0  0  0  0  0  0
    8.3132    4.5207    0.0000 H   0  0  0  0  0  0  0  0  0  0  0  0
    7.6153    8.0435    0.0000 H   0  0  0  0  0  0  0  0  0  0  0  0
   10.1186    4.9639    0.0000 H   0  0  0  0  0  0  0  0  0  0  0  0
   10.0567    8.9321    0.0000 H   0  0  0  0  0  0  0  0  0  0  0  0
    3.1784   -1.0784    0.0000 H   0  0  0  0  0  0  0  0  0  0  0  0
    2.6162   -3.3086    0.0000 H   0  0  0  0  0  0  0  0  0  0  0  0
    0.3530   -3.7077    0.0000 H   0  0  0  0  0  0  0  0  0  0  0  0
   -1.1242   -1.6700    0.0000 H   0  0  0  0  0  0  0  0  0  0  0  0
  1  2  1  0
  3  2  1  6
  3  4  1  0
  4  5  2  3
  5  6  1  0
  6  7  1  0
  7  8  1  0
  8  9  1  0
  9 10  1  0
 10 11  1  0
 11 12  1  0
 12 13  2  0
  3 14  1  0
 14 15  1  0
 15 16  1  0
 16  3  1  0
 16 14  1  0
  1 17  1  0
  1 18  1  0
  1 19  1  0
  2 20  1  0
  2 21  1  0
  4 22  1  0
  5 23  1  0
  6 24  1  0
  6 25  1  0
  7 26  1  0
  7 27  1  0
  8 28  1  0
  8 29  1  0
  9 30  1  0
  9 31  1  0
 10 32  1  0
 11 33  1  0
 12 34  1  0
 14 35  1  6
 15 36  1  0
 15 37  1  0
 16 38  1  6
M  END
$$$$
