
     RDKit          2D

 26 26  0  0  0  0  0  0  0  0999 V2000
   -0.0000    3.1820    0.0000 C   0  0  0  0  0  0  0  0  0  0  0  0
    1.0607    2.1213    0.0000 C   0  0  0  0  0  0  0  0  0  0  0  0
    2.1213    1.0607    0.0000 C   0  0  0  0  0  0  0  0  0  0  0  0
    3.1820    0.0000    0.0000 C   0  0  0  0  0  0  0  0  0  0  0  0
    1.0607   -0.0000    0.0000 C   0  0  0  0  0  0  0  0  0  0  0  0
    0.0000    1.0607    0.0000 C   0  0  0  0  0  0  0  0  0  0  0  0
    0.0000   -1.0607    0.0000 C   0  0  0  0  0  0  0  0  0  0  0  0
    1.0607   -2.1213    0.0000 O   0  0  0  0  0  0  0  0  0  0  0  0
    2.1213   -1.0607    0.0000 C   0  0  0  0  0  0  0  0  0  0  0  0
    3.1820   -2.1213    0.0000 O   0  0  0  0  0  0  0  0  0  0  0  0
   -1.0607    4.2426    0.0000 H   0  0  0  0  0  0  0  0  0  0  0  0
   -1.1820    2.2585    0.0000 H   0  0  0  0  0  0  0  0  0  0  0  0
    1.0607    4.2426    0.0000 H   0  0  0  0  0  0  0  0  0  0  0  0
    2.1213    3.1820    0.0000 H   0  0  0  0  0  0  0  0  0  0  0  0
    0.3773    1.7108    0.0000 H   0  0  0  0  0  0  0  0  0  0  0  0
    3.1820    2.1213    0.0000 H   0  0  0  0  0  0  0  0  0  0  0  0
    4.3640   -0.9235    0.0000 H   0  0  0  0  0  0  0  0  0  0  0  0
    4.2426    1.0607    0.0000 H   0  0  0  0  0  0  0  0  0  0  0  0
    2.4095   -1.2858    0.0000 H   0  0  0  0  0  0  0  0  0  0  0  0
   -1.1820    1.9841    0.0000 H   0  0  0  0  0  0  0  0  0  0  0  0
   -1.1820    0.1372    0.0000 H   0  0  0  0  0  0  0  0  0  0  0  0
    0.7725    2.3465    0.0000 H   0  0  0  0  0  0  0  0  0  0  0  0
   -1.1820   -0.1372    0.0000 H   0  0  0  0  0  0  0  0  0  0  0  0
   -1.0607   -2.1213    0.0000 H   0  0  0  0  0  0  0  0  0  0  0  0
    3.4071   -0.2882    0.0000 H   0  0  0  0  0  0  0  0  0  0  0  0
    4.6674   -1.9126    0.0000 H   0  0  0  0  0  0  0  0  0  0  0  0
  1  2  1  0
  2  3  1  0
  3  4  1  0
  3  5  1  0
  5  6  1  1
  5  7  1  0
  7  8  1  0
  8  9  1  0
  9 10  1  0
  9  5  1  0
  1 11  1  0
  1 12  1  0
  1 13  1  0
  2 14  1  0
  2 15  1  0
  3 16  1  1
  4 17  1  0
  4 18  1  0
  4 19  1  0
  6 20  1  0
  6 21  1  0
  6 22  1  0
  7 23  1  0
  7 24  1  0
  9 25  1  6
 10 26  1  0
M  END
$$$$
