
     RDKit          2D

102108  0  0  0  0  0  0  0  0999 V2000
   10.5504   -6.2354    0.0000 C   0  0  0  0  0  0  0  0  0  0  0  0
    9.6824   -5.0121    0.0000 C   0  0  0  0  0  0  0  0  0  0  0  0
   10.3079   -3.6487    0.0000 C   0  0  0  0  0  0  0  0  0  0  0  0
    8.1890   -5.1521    0.0000 C   0  0  0  0  0  0  0  0  0  0  0  0
    8.3848   -3.6650    0.0000 C   0  0  0  0  0  0  0  0  0  0  0  0
    7.3441   -2.5846    0.0000 C   0  0  0  0  0  0  0  0  0  0  0  0
    6.8753   -1.1598    0.0000 C   0  0  0  0  0  0  0  0  0  0  0  0
    6.4064    0.2650    0.0000 C   0  0  0  0  0  0  0  0  0  0  0  0
    5.9376    1.6899    0.0000 N   0  0  0  0  0  0  0  0  0  0  0  0
    5.8507   -2.7247    0.0000 C   0  0  0  0  0  0  0  0  0  0  0  0
    4.4444   -2.2029    0.0000 C   0  0  0  0  0  0  0  0  0  0  0  0
    5.0290   -3.9796    0.0000 C   0  0  0  0  0  0  0  0  0  0  0  0
    3.5419   -3.7838    0.0000 C   0  0  0  0  0  0  0  0  0  0  0  0
    2.0547   -3.5881    0.0000 C   0  0  0  0  0  0  0  0  0  0  0  0
    0.5675   -3.3923    0.0000 C   0  0  0  0  0  0  0  0  0  0  0  0
   -0.9196   -3.1965    0.0000 O   0  0  0  0  0  0  0  0  0  0  0  0
   -1.8328   -4.3865    0.0000 C   0  0  0  0  0  0  0  0  0  0  0  0
   -3.2817   -3.9983    0.0000 C   0  0  0  0  0  0  0  0  0  0  0  0
   -4.5807   -4.7483    0.0000 C   0  0  0  0  0  0  0  0  0  0  0  0
   -4.9689   -6.1972    0.0000 C   0  0  0  0  0  0  0  0  0  0  0  0
   -4.2189   -7.4962    0.0000 C   0  0  0  0  0  0  0  0  0  0  0  0
   -2.7701   -7.8844    0.0000 O   0  0  0  0  0  0  0  0  0  0  0  0
   -1.4710   -7.1344    0.0000 C   0  0  0  0  0  0  0  0  0  0  0  0
   -0.0221   -6.7462    0.0000 C   0  0  0  0  0  0  0  0  0  0  0  0
   -1.0828   -5.6855    0.0000 C   0  0  0  0  0  0  0  0  0  0  0  0
   -4.6044   -3.2385    0.0000 O   0  0  0  0  0  0  0  0  0  0  0  0
   -3.4144   -2.3253    0.0000 C   0  0  0  0  0  0  0  0  0  0  0  0
   -2.0286   -2.8993    0.0000 O   0  0  0  0  0  0  0  0  0  0  0  0
    2.2505   -2.1009    0.0000 C   0  0  0  0  0  0  0  0  0  0  0  0
    2.4463   -0.6137    0.0000 C   0  0  0  0  0  0  0  0  0  0  0  0
    3.9448   -0.5483    0.0000 C   0  0  0  0  0  0  0  0  0  0  0  0
    2.1216    0.8507    0.0000 C   0  0  0  0  0  0  0  0  0  0  0  0
    1.0157   -0.1627    0.0000 C   0  0  0  0  0  0  0  0  0  0  0  0
   -0.1743    0.7505    0.0000 C   0  0  0  0  0  0  0  0  0  0  0  0
   -1.3644    1.6636    0.0000 C   0  0  0  0  0  0  0  0  0  0  0  0
   -1.0875   -0.4396    0.0000 O   0  0  0  0  0  0  0  0  0  0  0  0
    0.7388    1.9405    0.0000 C   0  0  0  0  0  0  0  0  0  0  0  0
    1.6519    3.1305    0.0000 C   0  0  0  0  0  0  0  0  0  0  0  0
    2.5651    4.3206    0.0000 C   0  0  0  0  0  0  0  0  0  0  0  0
    4.9761   -6.8108    0.0000 C   0  0  0  0  0  0  0  0  0  0  0  0
    6.3824   -7.3326    0.0000 O   0  0  0  0  0  0  0  0  0  0  0  0
    6.9042   -5.9263    0.0000 C   0  0  0  0  0  0  0  0  0  0  0  0
    5.4979   -5.4045    0.0000 C   0  0  0  0  0  0  0  0  0  0  0  0
   12.0439   -6.0954    0.0000 H   0  0  0  0  0  0  0  0  0  0  0  0
    9.9250   -7.5988    0.0000 H   0  0  0  0  0  0  0  0  0  0  0  0
   10.9333   -2.2853    0.0000 H   0  0  0  0  0  0  0  0  0  0  0  0
   11.6713   -4.2741    0.0000 H   0  0  0  0  0  0  0  0  0  0  0  0
    9.6292   -3.2305    0.0000 H   0  0  0  0  0  0  0  0  0  0  0  0
    8.8280   -6.5092    0.0000 H   0  0  0  0  0  0  0  0  0  0  0  0
    8.8214   -2.9980    0.0000 H   0  0  0  0  0  0  0  0  0  0  0  0
    9.8756   -3.8310    0.0000 H   0  0  0  0  0  0  0  0  0  0  0  0
    8.5250   -1.6597    0.0000 H   0  0  0  0  0  0  0  0  0  0  0  0
    8.3001   -0.6910    0.0000 H   0  0  0  0  0  0  0  0  0  0  0  0
    5.4039   -1.4515    0.0000 H   0  0  0  0  0  0  0  0  0  0  0  0
    7.8313    0.7339    0.0000 H   0  0  0  0  0  0  0  0  0  0  0  0
    4.9816   -0.2038    0.0000 H   0  0  0  0  0  0  0  0  0  0  0  0
    6.9371    2.8083    0.0000 H   0  0  0  0  0  0  0  0  0  0  0  0
    4.4692    1.9963    0.0000 H   0  0  0  0  0  0  0  0  0  0  0  0
    5.8637   -1.2248    0.0000 H   0  0  0  0  0  0  0  0  0  0  0  0
    3.0381   -1.6811    0.0000 H   0  0  0  0  0  0  0  0  0  0  0  0
    4.9662   -0.7966    0.0000 H   0  0  0  0  0  0  0  0  0  0  0  0
    3.5978   -3.4411    0.0000 H   0  0  0  0  0  0  0  0  0  0  0  0
    3.5549   -2.2839    0.0000 H   0  0  0  0  0  0  0  0  0  0  0  0
    3.1662   -5.2361    0.0000 H   0  0  0  0  0  0  0  0  0  0  0  0
    1.8589   -5.0752    0.0000 H   0  0  0  0  0  0  0  0  0  0  0  0
    0.5545   -4.8922    0.0000 H   0  0  0  0  0  0  0  0  0  0  0  0
    0.3976   -1.9019    0.0000 H   0  0  0  0  0  0  0  0  0  0  0  0
   -4.0542   -2.7125    0.0000 H   0  0  0  0  0  0  0  0  0  0  0  0
   -2.8683   -2.5564    0.0000 H   0  0  0  0  0  0  0  0  0  0  0  0
   -5.7707   -3.8351    0.0000 H   0  0  0  0  0  0  0  0  0  0  0  0
   -6.1510   -7.1206    0.0000 H   0  0  0  0  0  0  0  0  0  0  0  0
   -6.2680   -5.4472    0.0000 H   0  0  0  0  0  0  0  0  0  0  0  0
   -4.2189   -8.9962    0.0000 H   0  0  0  0  0  0  0  0  0  0  0  0
   -5.6097   -8.0582    0.0000 H   0  0  0  0  0  0  0  0  0  0  0  0
   -0.8970   -8.5203    0.0000 H   0  0  0  0  0  0  0  0  0  0  0  0
    0.6118   -8.1057    0.0000 H   0  0  0  0  0  0  0  0  0  0  0  0
    1.2066   -5.8858    0.0000 H   0  0  0  0  0  0  0  0  0  0  0  0
    0.2097   -4.9243    0.0000 H   0  0  0  0  0  0  0  0  0  0  0  0
   -2.7687   -0.9714    0.0000 H   0  0  0  0  0  0  0  0  0  0  0  0
   -4.5203   -1.3119    0.0000 H   0  0  0  0  0  0  0  0  0  0  0  0
    3.7090   -1.7506    0.0000 H   0  0  0  0  0  0  0  0  0  0  0  0
    0.7633   -1.9051    0.0000 H   0  0  0  0  0  0  0  0  0  0  0  0
    5.4434   -0.4829    0.0000 H   0  0  0  0  0  0  0  0  0  0  0  0
    4.2440    0.9216    0.0000 H   0  0  0  0  0  0  0  0  0  0  0  0
    3.8794    0.9503    0.0000 H   0  0  0  0  0  0  0  0  0  0  0  0
    3.3273    1.7430    0.0000 H   0  0  0  0  0  0  0  0  0  0  0  0
    1.6457    2.2732    0.0000 H   0  0  0  0  0  0  0  0  0  0  0  0
    0.0217   -1.2860    0.0000 H   0  0  0  0  0  0  0  0  0  0  0  0
   -2.5544    2.5768    0.0000 H   0  0  0  0  0  0  0  0  0  0  0  0
   -0.6031    2.9561    0.0000 H   0  0  0  0  0  0  0  0  0  0  0  0
   -2.4158    0.5938    0.0000 H   0  0  0  0  0  0  0  0  0  0  0  0
   -2.5746   -0.2438    0.0000 H   0  0  0  0  0  0  0  0  0  0  0  0
   -0.3310    2.9919    0.0000 H   0  0  0  0  0  0  0  0  0  0  0  0
    2.1144    1.3425    0.0000 H   0  0  0  0  0  0  0  0  0  0  0  0
    0.4619    4.0437    0.0000 H   0  0  0  0  0  0  0  0  0  0  0  0
    2.8420    2.2174    0.0000 H   0  0  0  0  0  0  0  0  0  0  0  0
    3.4782    5.5106    0.0000 H   0  0  0  0  0  0  0  0  0  0  0  0
    1.3751    5.2337    0.0000 H   0  0  0  0  0  0  0  0  0  0  0  0
    3.7551    3.4074    0.0000 H   0  0  0  0  0  0  0  0  0  0  0  0
    3.6127   -7.4362    0.0000 H   0  0  0  0  0  0  0  0  0  0  0  0
    7.9340   -7.0169    0.0000 H   0  0  0  0  0  0  0  0  0  0  0  0
    4.0059   -5.5595    0.0000 H   0  0  0  0  0  0  0  0  0  0  0  0
  1  2  2  3
  2  3  1  0
  2  4  1  0
  4  5  1  0
  5  6  1  0
  6  7  1  0
  7  8  1  0
  8  9  1  0
  6 10  1  0
 10 11  1  0
 10 12  1  0
 12 13  1  0
 13 14  1  0
 14 15  1  0
 15 16  1  0
 16 17  1  0
 17 18  1  0
 18 19  1  0
 19 20  1  0
 20 21  1  0
 21 22  1  0
 22 23  1  0
 23 24  1  0
 24 25  1  0
 19 26  1  0
 26 27  1  0
 27 28  1  0
 14 29  1  0
 29 30  1  0
 30 31  1  0
 30 32  1  0
 32 33  1  0
 33 34  1  0
 34 35  1  0
 34 36  1  0
 34 37  1  0
 37 38  1  0
 38 39  1  0
 12 40  1  0
 40 41  1  0
 41 42  1  0
 42 43  1  0
 42  4  1  0
 43 12  1  0
 25 17  1  0
 33 30  1  0
 43 40  1  0
 28 17  1  0
 25 23  1  0
  1 44  1  0
  1 45  1  0
  3 46  1  0
  3 47  1  0
  3 48  1  0
  4 49  1  0
  5 50  1  0
  5 51  1  0
  6 52  1  0
  7 53  1  0
  7 54  1  0
  8 55  1  0
  8 56  1  0
  9 57  1  0
  9 58  1  0
 10 59  1  0
 11 60  1  0
 11 61  1  0
 11 62  1  0
 13 63  1  0
 13 64  1  0
 14 65  1  0
 15 66  1  0
 15 67  1  0
 18 68  1  0
 18 69  1  0
 19 70  1  0
 20 71  1  0
 20 72  1  0
 21 73  1  0
 21 74  1  0
 23 75  1  0
 24 76  1  0
 24 77  1  0
 25 78  1  0
 27 79  1  0
 27 80  1  0
 29 81  1  0
 29 82  1  0
 31 83  1  0
 31 84  1  0
 31 85  1  0
 32 86  1  0
 32 87  1  0
 33 88  1  0
 35 89  1  0
 35 90  1  0
 35 91  1  0
 36 92  1  0
 37 93  1  0
 37 94  1  0
 38 95  1  0
 38 96  1  0
 39 97  1  0
 39 98  1  0
 39 99  1  0
 40100  1  0
 42101  1  0
 43102  1  0
M  END
$$$$
