
     RDKit          2D

 51 54  0  0  0  0  0  0  0  0999 V2000
   -0.3981    4.5774    0.0000 C   0  0  0  0  0  0  0  0  0  0  0  0
   -1.5472    3.6132    0.0000 C   0  0  0  0  0  0  0  0  0  0  0  0
   -2.6962    2.6491    0.0000 C   0  0  0  0  0  0  0  0  0  0  0  0
   -3.6604    3.7981    0.0000 C   0  0  0  0  0  0  0  0  0  0  0  0
   -4.1734    2.3886    0.0000 C   0  0  0  0  0  0  0  0  0  0  0  0
   -4.6865    0.9791    0.0000 C   0  0  0  0  0  0  0  0  0  0  0  0
   -3.7223   -0.1700    0.0000 C   0  0  0  0  0  0  0  0  0  0  0  0
   -2.2451    0.0905    0.0000 C   0  0  0  0  0  0  0  0  0  0  0  0
   -1.7321    1.5000    0.0000 C   0  0  0  0  0  0  0  0  0  0  0  0
   -0.7679    2.6491    0.0000 C   0  0  0  0  0  0  0  0  0  0  0  0
   -1.9169    3.6132    0.0000 As  0  0  0  0  0  3  0  0  0  0  0  0
   -0.9528    4.7623    0.0000 C   0  0  0  0  0  0  0  0  0  0  0  0
    0.0114    5.9114    0.0000 C   0  0  0  0  0  0  0  0  0  0  0  0
   -0.5016    7.3209    0.0000 O   0  0  0  0  0  0  0  0  0  0  0  0
    1.4886    5.6509    0.0000 O   0  0  0  0  0  0  0  0  0  0  0  0
    0.1963    3.7981    0.0000 C   0  0  0  0  0  0  0  0  0  0  0  0
    1.3454    2.8340    0.0000 C   0  0  0  0  0  0  0  0  0  0  0  0
    2.4944    1.8698    0.0000 C   0  0  0  0  0  0  0  0  0  0  0  0
    3.8617    2.4867    0.0000 C   0  0  0  0  0  0  0  0  0  0  0  0
    5.1965    1.8024    0.0000 C   0  0  0  0  0  0  0  0  0  0  0  0
    5.4937    0.3321    0.0000 C   0  0  0  0  0  0  0  0  0  0  0  0
    4.5295   -0.8169    0.0000 C   0  0  0  0  0  0  0  0  0  0  0  0
    3.0300   -0.7795    0.0000 C   0  0  0  0  0  0  0  0  0  0  0  0
    2.1243    0.4162    0.0000 C   0  0  0  0  0  0  0  0  0  0  0  0
    0.8599    5.3944    0.0000 H   0  0  0  0  0  0  0  0  0  0  0  0
   -1.2150    5.8355    0.0000 H   0  0  0  0  0  0  0  0  0  0  0  0
    0.8155    3.6958    0.0000 H   0  0  0  0  0  0  0  0  0  0  0  0
   -0.3336    2.7316    0.0000 H   0  0  0  0  0  0  0  0  0  0  0  0
   -2.3641    4.8713    0.0000 H   0  0  0  0  0  0  0  0  0  0  0  0
   -2.8435    5.0562    0.0000 H   0  0  0  0  0  0  0  0  0  0  0  0
   -4.9595    4.5481    0.0000 H   0  0  0  0  0  0  0  0  0  0  0  0
   -2.6817    2.2319    0.0000 H   0  0  0  0  0  0  0  0  0  0  0  0
   -5.6507   -0.1700    0.0000 H   0  0  0  0  0  0  0  0  0  0  0  0
   -5.9855    1.7291    0.0000 H   0  0  0  0  0  0  0  0  0  0  0  0
   -4.2353   -1.5796    0.0000 H   0  0  0  0  0  0  0  0  0  0  0  0
   -1.2809   -1.0586    0.0000 H   0  0  0  0  0  0  0  0  0  0  0  0
   -0.4330    0.7500    0.0000 H   0  0  0  0  0  0  0  0  0  0  0  0
   -1.9169    3.6132    0.0000 H   0  0  0  0  0  0  0  0  0  0  0  0
   -3.3985    3.8480    0.0000 H   0  0  0  0  0  0  0  0  0  0  0  0
   -2.2108    5.5792    0.0000 H   0  0  0  0  0  0  0  0  0  0  0  0
    2.4528    6.8000    0.0000 H   0  0  0  0  0  0  0  0  0  0  0  0
    1.5083    4.5252    0.0000 H   0  0  0  0  0  0  0  0  0  0  0  0
    0.2483    1.8110    0.0000 H   0  0  0  0  0  0  0  0  0  0  0  0
    2.3096    3.9830    0.0000 H   0  0  0  0  0  0  0  0  0  0  0  0
    6.3922    2.7081    0.0000 H   0  0  0  0  0  0  0  0  0  0  0  0
    6.9473   -0.0380    0.0000 H   0  0  0  0  0  0  0  0  0  0  0  0
    5.1465   -2.1842    0.0000 H   0  0  0  0  0  0  0  0  0  0  0  0
    3.3272   -2.2498    0.0000 H   0  0  0  0  0  0  0  0  0  0  0  0
    1.7482   -1.5585    0.0000 H   0  0  0  0  0  0  0  0  0  0  0  0
    1.0273   -0.6068    0.0000 H   0  0  0  0  0  0  0  0  0  0  0  0
    0.7160    0.9327    0.0000 H   0  0  0  0  0  0  0  0  0  0  0  0
  1  2  1  0
  2  3  1  0
  3  4  1  0
  4  5  1  0
  5  6  1  0
  6  7  1  0
  7  8  2  0
  8  9  1  0
  9 10  1  0
 10 11  1  0
 11 12  1  0
 12 13  1  0
 13 14  2  0
 13 15  1  0
 12 16  1  0
 16 17  1  0
 17 18  1  0
 18 19  2  0
 19 20  2  0
 20 21  1  0
 21 22  2  0
 22 23  1  0
 23 24  1  0
  5  3  1  0
 16 10  1  0
 24 18  1  0
  9  3  1  0
  1 25  1  0
  1 26  1  0
  1 27  1  0
  2 28  1  0
  2 29  1  0
  4 30  1  0
  4 31  1  0
  5 32  1  0
  6 33  1  0
  6 34  1  0
  7 35  1  0
  8 36  1  0
  9 37  1  0
 10 38  1  0
 11 39  1  0
 12 40  1  0
 15 41  1  0
 16 42  1  0
 17 43  1  0
 17 44  1  0
 20 45  1  0
 21 46  1  0
 22 47  1  0
 23 48  1  0
 23 49  1  0
 24 50  1  0
 24 51  1  0
M  END
$$$$
