
     RDKit          3D

 14 16  0  0  0  0  0  0  0  0999 V2000
   15.8295  -14.8028  -14.9171 O   0  0  0  0  0  0  0  0  0  0  0  0
   17.3308  -15.2326  -16.7914 C   0  0  0  0  0  0  0  0  0  0  0  0
   18.6347  -15.6841  -17.0135 O   0  0  0  0  0  0  0  0  0  0  0  0
   17.2555  -13.7204  -16.6116 C   0  0  0  0  0  0  0  0  0  0  0  0
   15.9622  -13.0681  -17.1223 C   0  0  0  0  0  0  0  0  0  0  0  0
   17.1324  -14.6463  -15.4020 C   0  0  0  0  0  0  0  0  0  0  0  0
   16.1737  -12.5385  -18.5125 C   0  0  0  0  0  0  0  0  0  0  0  0
   16.3435  -11.2614  -18.8503 C   0  0  0  0  0  0  0  0  0  0  0  0
   16.2610  -10.0802  -17.9244 C   0  0  0  0  0  0  0  0  0  0  0  0
   17.3293   -9.0179  -18.1428 C   0  0  0  0  0  0  0  0  0  0  0  0
   16.4771  -11.1736  -20.2954 C   0  0  0  0  0  0  0  0  0  0  0  0
   16.2447  -13.4082  -19.7281 C   0  0  0  0  0  0  0  0  0  0  0  0
   17.4210   -9.9500  -16.9487 C   0  0  0  0  0  0  0  0  0  0  0  0
   16.4315  -12.3921  -20.8062 C   0  0  0  0  0  0  0  0  0  0  0  0
  3  2  1  0
  4  2  1  0
  5  4  1  0
  6  1  1  0
  6  2  1  0
  6  4  1  0
  7  5  1  0
  8  7  2  0
  9  8  1  0
 10  9  1  0
 11  8  1  0
 12  7  1  0
 13  9  1  0
 13 10  1  0
 14 11  2  0
 14 12  1  0
M  END
$$$$
