
     RDKit          2D

 35 38  0  0  0  0  0  0  0  0999 V2000
    3.7586    3.4472    0.0000 C   0  0  0  0  0  0  0  0  0  0  0  0
    2.7944    2.2981    0.0000 C   0  0  0  0  0  0  0  0  0  0  0  0
    1.8302    1.1491    0.0000 C   0  0  0  0  0  0  0  0  0  0  0  0
    0.8660    0.0000    0.0000 C   0  0  0  0  0  0  0  0  0  0  0  0
   -0.4330    0.7500    0.0000 C   0  0  0  0  0  0  0  0  0  0  0  0
   -1.9330    0.7500    0.0000 N   0  0  0  0  0  0  0  0  0  0  0  0
   -2.9937    1.8107    0.0000 C   0  0  0  0  0  0  0  0  0  0  0  0
   -2.1333    3.0394    0.0000 N   0  0  0  0  0  0  0  0  0  0  0  0
   -4.3531    2.4446    0.0000 C   0  0  0  0  0  0  0  0  0  0  0  0
   -4.2224    0.9503    0.0000 C   0  0  0  0  0  0  0  0  0  0  0  0
   -5.6713    0.5621    0.0000 N   0  0  0  0  0  0  0  0  0  0  0  0
   -6.7319    1.6227    0.0000 O   0  0  0  0  0  0  0  0  0  0  0  0
   -1.9330   -0.7500    0.0000 C   0  0  0  0  0  0  0  0  0  0  0  0
   -3.3819   -1.1382    0.0000 N   0  0  0  0  0  0  0  0  0  0  0  0
   -1.1830   -2.0490    0.0000 N   0  0  0  0  0  0  0  0  0  0  0  0
   -0.4330   -0.7500    0.0000 C   0  0  0  0  0  0  0  0  0  0  0  0
    4.7228    4.5963    0.0000 H   0  0  0  0  0  0  0  0  0  0  0  0
    4.9076    2.4830    0.0000 H   0  0  0  0  0  0  0  0  0  0  0  0
    2.6095    4.4114    0.0000 H   0  0  0  0  0  0  0  0  0  0  0  0
    3.9435    1.3340    0.0000 H   0  0  0  0  0  0  0  0  0  0  0  0
    1.6453    3.2623    0.0000 H   0  0  0  0  0  0  0  0  0  0  0  0
    2.9793    0.1849    0.0000 H   0  0  0  0  0  0  0  0  0  0  0  0
    0.8072    2.2461    0.0000 H   0  0  0  0  0  0  0  0  0  0  0  0
    1.8302   -1.1491    0.0000 H   0  0  0  0  0  0  0  0  0  0  0  0
   -0.2452    2.0869    0.0000 H   0  0  0  0  0  0  0  0  0  0  0  0
   -2.7672    4.3988    0.0000 H   0  0  0  0  0  0  0  0  0  0  0  0
   -0.7884    2.9217    0.0000 H   0  0  0  0  0  0  0  0  0  0  0  0
   -3.9649    3.8935    0.0000 H   0  0  0  0  0  0  0  0  0  0  0  0
   -5.8474    2.5753    0.0000 H   0  0  0  0  0  0  0  0  0  0  0  0
   -4.0703    0.1678    0.0000 H   0  0  0  0  0  0  0  0  0  0  0  0
   -6.0595   -0.8868    0.0000 H   0  0  0  0  0  0  0  0  0  0  0  0
   -8.1808    1.2345    0.0000 H   0  0  0  0  0  0  0  0  0  0  0  0
   -4.0082   -0.5119    0.0000 H   0  0  0  0  0  0  0  0  0  0  0  0
   -3.7701   -2.5871    0.0000 H   0  0  0  0  0  0  0  0  0  0  0  0
   -1.1830   -3.5490    0.0000 H   0  0  0  0  0  0  0  0  0  0  0  0
  1  2  1  0
  2  3  1  0
  3  4  1  0
  4  5  1  0
  5  6  1  0
  6  7  1  0
  7  8  1  0
  7  9  1  0
  9 10  1  0
 10 11  1  0
 11 12  1  0
  6 13  1  0
 13 14  1  0
 13 15  1  0
 15 16  1  0
 16  4  1  0
 16  5  1  0
 10  7  1  0
 16 13  1  0
  1 17  1  0
  1 18  1  0
  1 19  1  0
  2 20  1  0
  2 21  1  0
  3 22  1  0
  3 23  1  0
  4 24  1  0
  5 25  1  0
  8 26  1  0
  8 27  1  0
  9 28  1  0
  9 29  1  0
 10 30  1  0
 11 31  1  0
 12 32  1  0
 14 33  1  0
 14 34  1  0
 15 35  1  0
M  END
$$$$
