
     RDKit          2D

114120  0  0  0  0  0  0  0  0999 V2000
  -10.2935   -2.2860    0.0000 C   0  0  0  0  0  0  0  0  0  0  0  0
  -10.2935   -0.7860    0.0000 C   0  0  0  0  0  0  0  0  0  0  0  0
  -11.5926   -0.0360    0.0000 C   0  0  0  0  0  0  0  0  0  0  0  0
  -12.8916    0.7140    0.0000 C   0  0  0  0  0  0  0  0  0  0  0  0
  -10.8426    1.2630    0.0000 C   0  0  0  0  0  0  0  0  0  0  0  0
  -11.9916    2.2272    0.0000 C   0  0  0  0  0  0  0  0  0  0  0  0
   -9.4330    0.7500    0.0000 C   0  0  0  0  0  0  0  0  0  0  0  0
   -7.9330    0.7500    0.0000 C   0  0  0  0  0  0  0  0  0  0  0  0
   -7.9330    2.2500    0.0000 C   0  0  0  0  0  0  0  0  0  0  0  0
   -7.9330    3.7500    0.0000 N   0  0  0  0  0  0  0  0  0  0  0  0
   -6.6340    4.5000    0.0000 C   0  0  0  0  0  0  0  0  0  0  0  0
   -7.3840    5.7990    0.0000 C   0  0  0  0  0  0  0  0  0  0  0  0
   -8.1340    7.0981    0.0000 C   0  0  0  0  0  0  0  0  0  0  0  0
   -6.0849    6.5490    0.0000 N   0  0  0  0  0  0  0  0  0  0  0  0
   -5.3349    5.2500    0.0000 N   0  0  0  0  0  0  0  0  0  0  0  0
   -3.8860    4.8618    0.0000 C   0  0  0  0  0  0  0  0  0  0  0  0
   -6.4330    2.2500    0.0000 C   0  0  0  0  0  0  0  0  0  0  0  0
   -4.9330    2.2500    0.0000 C   0  0  0  0  0  0  0  0  0  0  0  0
   -4.0303    3.4479    0.0000 O   0  0  0  0  0  0  0  0  0  0  0  0
   -6.4330    0.7500    0.0000 C   0  0  0  0  0  0  0  0  0  0  0  0
   -7.9330    0.7500    0.0000 C   0  0  0  0  0  0  0  0  0  0  0  0
   -9.4330    0.7500    0.0000 C   0  0  0  0  0  0  0  0  0  0  0  0
   -7.9330    2.2500    0.0000 C   0  0  0  0  0  0  0  0  0  0  0  0
   -7.9330    3.7500    0.0000 C   0  0  0  0  0  0  0  0  0  0  0  0
   -7.9330    5.2500    0.0000 C   0  0  0  0  0  0  0  0  0  0  0  0
   -7.9330    6.7500    0.0000 C   0  0  0  0  0  0  0  0  0  0  0  0
   -7.9330    8.2500    0.0000 C   0  0  0  0  0  0  0  0  0  0  0  0
   -6.4558    8.5105    0.0000 C   0  0  0  0  0  0  0  0  0  0  0  0
   -9.4102    8.5105    0.0000 C   0  0  0  0  0  0  0  0  0  0  0  0
   -9.9233    9.9200    0.0000 C   0  0  0  0  0  0  0  0  0  0  0  0
  -11.4005    9.6595    0.0000 C   0  0  0  0  0  0  0  0  0  0  0  0
  -12.8777    9.3991    0.0000 C   0  0  0  0  0  0  0  0  0  0  0  0
   -8.4460    9.6595    0.0000 C   0  0  0  0  0  0  0  0  0  0  0  0
   -6.4330   -0.7500    0.0000 C   0  0  0  0  0  0  0  0  0  0  0  0
   -6.4330   -2.2500    0.0000 C   0  0  0  0  0  0  0  0  0  0  0  0
   -4.9330   -0.7500    0.0000 C   0  0  0  0  0  0  0  0  0  0  0  0
   -3.4330   -0.7500    0.0000 C   0  0  0  0  0  0  0  0  0  0  0  0
   -1.9330   -0.7500    0.0000 C   0  0  0  0  0  0  0  0  0  0  0  0
   -1.9330    0.7500    0.0000 C   0  0  0  0  0  0  0  0  0  0  0  0
   -0.4330    0.7500    0.0000 C   0  0  0  0  0  0  0  0  0  0  0  0
    0.8660    0.0000    0.0000 C   0  0  0  0  0  0  0  0  0  0  0  0
    1.8302    1.1491    0.0000 C   0  0  0  0  0  0  0  0  0  0  0  0
   -0.4330   -0.7500    0.0000 C   0  0  0  0  0  0  0  0  0  0  0  0
   -9.6935    2.2272    0.0000 C   0  0  0  0  0  0  0  0  0  0  0  0
  -10.4435    3.5262    0.0000 C   0  0  0  0  0  0  0  0  0  0  0  0
   -8.9945   -3.0360    0.0000 H   0  0  0  0  0  0  0  0  0  0  0  0
  -11.5926   -3.0360    0.0000 H   0  0  0  0  0  0  0  0  0  0  0  0
   -8.8516   -0.3726    0.0000 H   0  0  0  0  0  0  0  0  0  0  0  0
  -12.3426   -1.3350    0.0000 H   0  0  0  0  0  0  0  0  0  0  0  0
  -14.1906    1.4640    0.0000 H   0  0  0  0  0  0  0  0  0  0  0  0
  -13.6416   -0.5850    0.0000 H   0  0  0  0  0  0  0  0  0  0  0  0
  -12.6571    2.1955    0.0000 H   0  0  0  0  0  0  0  0  0  0  0  0
  -13.1407    3.1914    0.0000 H   0  0  0  0  0  0  0  0  0  0  0  0
  -13.2052    1.3456    0.0000 H   0  0  0  0  0  0  0  0  0  0  0  0
  -11.3341    3.5754    0.0000 H   0  0  0  0  0  0  0  0  0  0  0  0
   -8.9693   -0.6765    0.0000 H   0  0  0  0  0  0  0  0  0  0  0  0
   -8.2960   -0.7054    0.0000 H   0  0  0  0  0  0  0  0  0  0  0  0
   -9.3333    2.7877    0.0000 H   0  0  0  0  0  0  0  0  0  0  0  0
   -9.2321    4.5000    0.0000 H   0  0  0  0  0  0  0  0  0  0  0  0
   -5.5919    3.4210    0.0000 H   0  0  0  0  0  0  0  0  0  0  0  0
   -8.8782    5.9300    0.0000 H   0  0  0  0  0  0  0  0  0  0  0  0
   -9.1760    8.1770    0.0000 H   0  0  0  0  0  0  0  0  0  0  0  0
   -6.6921    7.5115    0.0000 H   0  0  0  0  0  0  0  0  0  0  0  0
   -9.5147    6.5120    0.0000 H   0  0  0  0  0  0  0  0  0  0  0  0
   -5.6967    7.9979    0.0000 H   0  0  0  0  0  0  0  0  0  0  0  0
   -2.4372    4.4735    0.0000 H   0  0  0  0  0  0  0  0  0  0  0  0
   -3.4978    6.3107    0.0000 H   0  0  0  0  0  0  0  0  0  0  0  0
   -4.0948    3.3764    0.0000 H   0  0  0  0  0  0  0  0  0  0  0  0
   -5.7287    3.5743    0.0000 H   0  0  0  0  0  0  0  0  0  0  0  0
   -4.3470    0.8692    0.0000 H   0  0  0  0  0  0  0  0  0  0  0  0
   -7.9330   -0.7500    0.0000 H   0  0  0  0  0  0  0  0  0  0  0  0
  -10.8884    0.3870    0.0000 H   0  0  0  0  0  0  0  0  0  0  0  0
   -9.6159   -0.7388    0.0000 H   0  0  0  0  0  0  0  0  0  0  0  0
   -9.2502   -0.7388    0.0000 H   0  0  0  0  0  0  0  0  0  0  0  0
   -9.4218    2.4328    0.0000 H   0  0  0  0  0  0  0  0  0  0  0  0
   -6.4776    2.6130    0.0000 H   0  0  0  0  0  0  0  0  0  0  0  0
   -9.4330    3.7500    0.0000 H   0  0  0  0  0  0  0  0  0  0  0  0
   -6.4776    3.3870    0.0000 H   0  0  0  0  0  0  0  0  0  0  0  0
   -6.4776    5.6130    0.0000 H   0  0  0  0  0  0  0  0  0  0  0  0
   -9.4330    5.2500    0.0000 H   0  0  0  0  0  0  0  0  0  0  0  0
   -9.4218    6.5672    0.0000 H   0  0  0  0  0  0  0  0  0  0  0  0
   -6.4776    7.1130    0.0000 H   0  0  0  0  0  0  0  0  0  0  0  0
   -4.9786    8.7709    0.0000 H   0  0  0  0  0  0  0  0  0  0  0  0
   -6.5343   10.0084    0.0000 H   0  0  0  0  0  0  0  0  0  0  0  0
   -6.8944    9.9449    0.0000 H   0  0  0  0  0  0  0  0  0  0  0  0
  -10.3744    7.3614    0.0000 H   0  0  0  0  0  0  0  0  0  0  0  0
   -9.9233   11.4200    0.0000 H   0  0  0  0  0  0  0  0  0  0  0  0
  -11.6609   11.1368    0.0000 H   0  0  0  0  0  0  0  0  0  0  0  0
  -11.1400    8.1823    0.0000 H   0  0  0  0  0  0  0  0  0  0  0  0
  -14.3549    9.1386    0.0000 H   0  0  0  0  0  0  0  0  0  0  0  0
  -13.1382   10.8763    0.0000 H   0  0  0  0  0  0  0  0  0  0  0  0
  -12.6172    7.9219    0.0000 H   0  0  0  0  0  0  0  0  0  0  0  0
   -7.4819   10.8086    0.0000 H   0  0  0  0  0  0  0  0  0  0  0  0
   -7.8884   -1.1130    0.0000 H   0  0  0  0  0  0  0  0  0  0  0  0
   -6.4330   -3.7500    0.0000 H   0  0  0  0  0  0  0  0  0  0  0  0
   -7.9330   -2.2500    0.0000 H   0  0  0  0  0  0  0  0  0  0  0  0
   -4.9442   -2.4328    0.0000 H   0  0  0  0  0  0  0  0  0  0  0  0
   -4.7502   -2.2388    0.0000 H   0  0  0  0  0  0  0  0  0  0  0  0
   -5.1159    0.7388    0.0000 H   0  0  0  0  0  0  0  0  0  0  0  0
   -3.4330    0.7500    0.0000 H   0  0  0  0  0  0  0  0  0  0  0  0
   -3.4330   -2.2500    0.0000 H   0  0  0  0  0  0  0  0  0  0  0  0
   -1.9330   -2.2500    0.0000 H   0  0  0  0  0  0  0  0  0  0  0  0
   -1.9330    2.2500    0.0000 H   0  0  0  0  0  0  0  0  0  0  0  0
   -3.4330    0.7500    0.0000 H   0  0  0  0  0  0  0  0  0  0  0  0
   -0.2243    2.2354    0.0000 H   0  0  0  0  0  0  0  0  0  0  0  0
    1.8302   -1.1491    0.0000 H   0  0  0  0  0  0  0  0  0  0  0  0
    2.7944    2.2981    0.0000 H   0  0  0  0  0  0  0  0  0  0  0  0
    2.9793    0.1849    0.0000 H   0  0  0  0  0  0  0  0  0  0  0  0
    0.8072    2.2461    0.0000 H   0  0  0  0  0  0  0  0  0  0  0  0
   -0.0448   -2.1989    0.0000 H   0  0  0  0  0  0  0  0  0  0  0  0
   -8.6899    3.3420    0.0000 H   0  0  0  0  0  0  0  0  0  0  0  0
  -11.1935    4.8253    0.0000 H   0  0  0  0  0  0  0  0  0  0  0  0
  -11.9250    3.2917    0.0000 H   0  0  0  0  0  0  0  0  0  0  0  0
   -9.4996    4.6920    0.0000 H   0  0  0  0  0  0  0  0  0  0  0  0
  1  2  2  3
  2  3  1  0
  3  4  1  0
  3  5  1  0
  5  6  1  6
  5  7  1  0
  7  8  1  0
  8  9  1  0
  9 10  1  0
 10 11  1  0
 11 12  1  0
 12 13  1  0
 12 14  1  0
 14 15  1  0
 15 16  1  0
  9 17  1  0
 17 18  1  0
 18 19  2  0
 17 20  1  0
 20 21  1  6
 21 22  1  0
 21 23  1  0
 23 24  1  0
 24 25  1  0
 25 26  1  0
 27 26  1  6
 27 28  1  0
 27 29  1  0
 29 30  1  0
 30 31  1  0
 31 32  1  0
 30 33  1  0
 20 34  1  0
 34 35  1  0
 34 36  1  0
 36 37  1  0
 37 38  1  0
 38 39  1  0
 39 40  1  0
 40 41  1  0
 41 42  1  0
 41 43  1  0
  7 44  1  0
 44 45  1  0
 44  5  1  0
 20  8  1  0
 33 27  1  0
 43 38  1  0
 15 11  1  0
 33 29  1  0
 43 40  1  0
  1 46  1  0
  1 47  1  0
  2 48  1  0
  3 49  1  1
  4 50  1  0
  4 51  1  0
  4 52  1  0
  6 53  1  0
  6 54  1  0
  6 55  1  0
  7 56  1  6
  8 57  1  6
  9 58  1  6
 10 59  1  0
 11 60  1  1
 12 61  1  6
 13 62  1  0
 13 63  1  0
 13 64  1  0
 14 65  1  0
 16 66  1  0
 16 67  1  0
 16 68  1  0
 17 69  1  6
 18 70  1  0
 21 71  1  1
 22 72  1  0
 22 73  1  0
 22 74  1  0
 23 75  1  0
 23 76  1  0
 24 77  1  0
 24 78  1  0
 25 79  1  0
 25 80  1  0
 26 81  1  0
 26 82  1  0
 28 83  1  0
 28 84  1  0
 28 85  1  0
 29 86  1  6
 30 87  1  6
 31 88  1  0
 31 89  1  0
 32 90  1  0
 32 91  1  0
 32 92  1  0
 33 93  1  6
 34 94  1  6
 35 95  1  0
 35 96  1  0
 35 97  1  0
 36 98  1  0
 36 99  1  0
 37100  1  0
 37101  1  0
 38102  1  6
 39103  1  0
 39104  1  0
 40105  1  1
 41106  1  6
 42107  1  0
 42108  1  0
 42109  1  0
 43110  1  6
 44111  1  1
 45112  1  0
 45113  1  0
 45114  1  0
M  END
$$$$
