
     RDKit          2D

 22 22  0  0  0  0  0  0  0  0999 V2000
    6.1160   -9.0933    0.0000 O   0  0  0  0  0  0  0  0  0  0  0  0
    5.3660   -7.7942    0.0000 O   0  0  0  0  0  0  0  0  0  0  0  0
    6.1160   -6.4952    0.0000 O   0  0  0  0  0  0  0  0  0  0  0  0
    5.3660   -5.1962    0.0000 N   0  0  0  0  0  0  0  0  0  0  0  0
    6.1160   -3.8971    0.0000 P   0  0  0  0  0  0  0  0  0  0  0  0
    5.3660   -2.5981    0.0000 C   0  0  0  0  0  0  0  0  0  0  0  0
    4.6160   -1.2990    0.0000 O   0  0  0  0  0  0  0  0  0  0  0  0
    3.1160   -1.2990    0.0000 O   0  0  0  0  0  0  0  0  0  0  0  0
    2.3660    0.0000    0.0000 N   0  0  0  0  0  0  0  0  0  0  0  0
    0.8660    0.0000    0.0000 P   0  0  0  0  0  0  0  0  0  0  0  0
   -0.4330    0.7500    0.0000 C   0  0  0  0  0  0  0  0  0  0  0  0
   -0.4330   -0.7500    0.0000 C   0  0  0  0  0  0  0  0  0  0  0  0
    5.3660  -10.3923    0.0000 H   0  0  0  0  0  0  0  0  0  0  0  0
    3.8660   -5.1962    0.0000 H   0  0  0  0  0  0  0  0  0  0  0  0
    7.6160   -3.8971    0.0000 H   0  0  0  0  0  0  0  0  0  0  0  0
    6.6651   -1.8481    0.0000 H   0  0  0  0  0  0  0  0  0  0  0  0
    4.0670   -3.3481    0.0000 H   0  0  0  0  0  0  0  0  0  0  0  0
    3.1160    1.2990    0.0000 H   0  0  0  0  0  0  0  0  0  0  0  0
   -1.9102    1.0105    0.0000 H   0  0  0  0  0  0  0  0  0  0  0  0
    0.0800    2.1595    0.0000 H   0  0  0  0  0  0  0  0  0  0  0  0
    0.0800   -2.1595    0.0000 H   0  0  0  0  0  0  0  0  0  0  0  0
   -1.9102   -1.0105    0.0000 H   0  0  0  0  0  0  0  0  0  0  0  0
  1  2  1  0
  2  3  1  0
  3  4  1  0
  4  5  1  0
  5  6  1  0
  6  7  1  0
  7  8  1  0
  8  9  1  0
  9 10  1  0
 10 11  1  0
 11 12  1  0
 12 10  1  0
  1 13  1  0
  4 14  1  0
  5 15  1  0
  6 16  1  0
  6 17  1  0
  9 18  1  0
 11 19  1  0
 11 20  1  0
 12 21  1  0
 12 22  1  0
M  END
$$$$
