
     RDKit          2D

 35 38  0  0  0  0  0  0  0  0999 V2000
   -2.9363    5.3296    0.0000 C   0  0  0  0  0  0  0  0  0  0  0  0
   -2.4233    3.9200    0.0000 C   0  0  0  0  0  0  0  0  0  0  0  0
   -1.9102    2.5105    0.0000 C   0  0  0  0  0  0  0  0  0  0  0  0
   -3.2093    1.7605    0.0000 N   0  0  0  0  0  0  0  0  0  0  0  0
   -1.9102    1.0105    0.0000 C   0  0  0  0  0  0  0  0  0  0  0  0
   -0.4330    0.7500    0.0000 C   0  0  0  0  0  0  0  0  0  0  0  0
    0.8660    0.0000    0.0000 C   0  0  0  0  0  0  0  0  0  0  0  0
   -0.4330   -0.7500    0.0000 C   0  0  0  0  0  0  0  0  0  0  0  0
   -1.8819   -1.1382    0.0000 B   0  0  0  0  0  0  0  0  0  0  0  0
   -1.4937   -2.5871    0.0000 C   0  0  0  0  0  0  0  0  0  0  0  0
   -1.1054   -4.0360    0.0000 C   0  0  0  0  0  0  0  0  0  0  0  0
   -2.5543   -4.4242    0.0000 C   0  0  0  0  0  0  0  0  0  0  0  0
   -2.1661   -5.8731    0.0000 C   0  0  0  0  0  0  0  0  0  0  0  0
   -0.7172   -5.4849    0.0000 O   0  0  0  0  0  0  0  0  0  0  0  0
   -0.0448   -2.1989    0.0000 C   0  0  0  0  0  0  0  0  0  0  0  0
   -3.4493    6.7391    0.0000 H   0  0  0  0  0  0  0  0  0  0  0  0
   -4.3458    4.8165    0.0000 H   0  0  0  0  0  0  0  0  0  0  0  0
   -1.5267    5.8426    0.0000 H   0  0  0  0  0  0  0  0  0  0  0  0
   -3.8328    3.4070    0.0000 H   0  0  0  0  0  0  0  0  0  0  0  0
   -1.0137    4.4330    0.0000 H   0  0  0  0  0  0  0  0  0  0  0  0
   -0.4758    2.9491    0.0000 H   0  0  0  0  0  0  0  0  0  0  0  0
   -4.7093    1.7605    0.0000 H   0  0  0  0  0  0  0  0  0  0  0  0
   -2.3570    0.1336    0.0000 H   0  0  0  0  0  0  0  0  0  0  0  0
    0.2480    2.0865    0.0000 H   0  0  0  0  0  0  0  0  0  0  0  0
    1.8302    1.1491    0.0000 H   0  0  0  0  0  0  0  0  0  0  0  0
    1.9631   -1.0230    0.0000 H   0  0  0  0  0  0  0  0  0  0  0  0
   -2.7878   -0.7537    0.0000 H   0  0  0  0  0  0  0  0  0  0  0  0
   -2.3708   -2.7104    0.0000 H   0  0  0  0  0  0  0  0  0  0  0  0
   -0.2283   -3.9128    0.0000 H   0  0  0  0  0  0  0  0  0  0  0  0
   -4.0032   -4.8125    0.0000 H   0  0  0  0  0  0  0  0  0  0  0  0
   -2.8862   -3.6030    0.0000 H   0  0  0  0  0  0  0  0  0  0  0  0
   -1.7779   -7.3220    0.0000 H   0  0  0  0  0  0  0  0  0  0  0  0
   -3.6150   -6.2614    0.0000 H   0  0  0  0  0  0  0  0  0  0  0  0
    1.4406   -1.9902    0.0000 H   0  0  0  0  0  0  0  0  0  0  0  0
    0.2870   -3.0201    0.0000 H   0  0  0  0  0  0  0  0  0  0  0  0
  1  2  1  0
  2  3  1  0
  3  4  1  0
  4  5  1  0
  5  6  1  0
  6  7  1  0
  7  8  1  0
  8  9  1  0
  9 10  1  0
 10 11  1  0
 11 12  1  0
 12 13  1  0
 13 14  1  0
 10 15  1  0
  5  3  1  0
  8  6  1  0
 14 11  1  0
 15  8  1  0
  1 16  1  0
  1 17  1  0
  1 18  1  0
  2 19  1  0
  2 20  1  0
  3 21  1  0
  4 22  1  0
  5 23  1  0
  6 24  1  0
  7 25  1  0
  7 26  1  0
  9 27  1  0
 10 28  1  0
 11 29  1  0
 12 30  1  0
 12 31  1  0
 13 32  1  0
 13 33  1  0
 15 34  1  0
 15 35  1  0
M  END
$$$$
