
     RDKit          2D

103113  0  0  0  0  0  0  0  0999 V2000
   -1.2426   -5.4606    0.0000 C   0  0  0  0  0  0  0  0  0  0  0  0
   -2.6129   -4.8505    0.0000 C   0  0  0  0  0  0  0  0  0  0  0  0
   -3.9833   -4.2404    0.0000 C   0  0  0  0  0  0  0  0  0  0  0  0
   -5.3536   -3.6303    0.0000 P   0  0  0  0  0  0  0  0  0  0  0  0
   -4.7435   -2.2600    0.0000 C   0  0  0  0  0  0  0  0  0  0  0  0
   -6.2430   -2.2207    0.0000 C   0  0  0  0  0  0  0  0  0  0  0  0
   -5.2810   -0.8596    0.0000 C   0  0  0  0  0  0  0  0  0  0  0  0
   -4.6709    0.5107    0.0000 C   0  0  0  0  0  0  0  0  0  0  0  0
   -4.8277    2.0025    0.0000 C   0  0  0  0  0  0  0  0  0  0  0  0
   -3.2706    1.0482    0.0000 C   0  0  0  0  0  0  0  0  0  0  0  0
   -4.6845    1.5489    0.0000 C   0  0  0  0  0  0  0  0  0  0  0  0
   -4.0206    2.3473    0.0000 C   0  0  0  0  0  0  0  0  0  0  0  0
   -5.2341    3.2290    0.0000 C   0  0  0  0  0  0  0  0  0  0  0  0
   -3.8638    6.0685    0.0000 N   0  0  0  0  0  0  0  0  0  0  0  0
   -3.4002    7.4951    0.0000 C   0  0  0  0  0  0  0  0  0  0  0  0
   -1.9330    7.8069    0.0000 C   0  0  0  0  0  0  0  0  0  0  0  0
   -0.9293    6.6922    0.0000 C   0  0  0  0  0  0  0  0  0  0  0  0
   -2.6352    3.7046    0.0000 C   0  0  0  0  0  0  0  0  0  0  0  0
   -3.6990    2.6470    0.0000 C   0  0  0  0  0  0  0  0  0  0  0  0
   -5.6272    1.8293    0.0000 C   0  0  0  0  0  0  0  0  0  0  0  0
   -7.1111    1.6101    0.0000 O   0  0  0  0  0  0  0  0  0  0  0  0
   -5.4080    0.3454    0.0000 C   0  0  0  0  0  0  0  0  0  0  0  0
   -4.0349   -0.2584    0.0000 C   0  0  0  0  0  0  0  0  0  0  0  0
   -3.2405   -1.5308    0.0000 C   0  0  0  0  0  0  0  0  0  0  0  0
   -1.9728   -2.3326    0.0000 C   0  0  0  0  0  0  0  0  0  0  0  0
   -1.3627   -0.9622    0.0000 N   0  0  0  0  0  0  0  0  0  0  0  0
   -1.9002    0.4381    0.0000 C   0  0  0  0  0  0  0  0  0  0  0  0
   -0.4330    0.7500    0.0000 C   0  0  0  0  0  0  0  0  0  0  0  0
    0.8660    0.0000    0.0000 O   0  0  0  0  0  0  0  0  0  0  0  0
   -0.4330   -0.7500    0.0000 C   0  0  0  0  0  0  0  0  0  0  0  0
    0.0800   -2.1595    0.0000 O   0  0  0  0  0  0  0  0  0  0  0  0
    0.5707    1.8647    0.0000 C   0  0  0  0  0  0  0  0  0  0  0  0
    1.9410    1.2546    0.0000 C   0  0  0  0  0  0  0  0  0  0  0  0
    2.9447    2.3693    0.0000 C   0  0  0  0  0  0  0  0  0  0  0  0
    3.9484    1.2546    0.0000 F   0  0  0  0  0  0  0  0  0  0  0  0
    2.1947    3.6684    0.0000 C   0  0  0  0  0  0  0  0  0  0  0  0
    3.5650    4.2785    0.0000 C   0  0  0  0  0  0  0  0  0  0  0  0
    0.7275    3.3565    0.0000 C   0  0  0  0  0  0  0  0  0  0  0  0
   -0.0225    4.6555    0.0000 C   0  0  0  0  0  0  0  0  0  0  0  0
   -1.3928    5.2656    0.0000 C   0  0  0  0  0  0  0  0  0  0  0  0
   -2.8601    4.9538    0.0000 C   0  0  0  0  0  0  0  0  0  0  0  0
   -3.8638    3.8391    0.0000 C   0  0  0  0  0  0  0  0  0  0  0  0
   -4.7454    5.0526    0.0000 C   0  0  0  0  0  0  0  0  0  0  0  0
   -3.3732   -2.8701    0.0000 C   0  0  0  0  0  0  0  0  0  0  0  0
   -4.1985    1.2326    0.0000 C   0  0  0  0  0  0  0  0  0  0  0  0
    0.1277   -6.0707    0.0000 H   0  0  0  0  0  0  0  0  0  0  0  0
   -1.8527   -6.8310    0.0000 H   0  0  0  0  0  0  0  0  0  0  0  0
   -0.4700   -4.1749    0.0000 H   0  0  0  0  0  0  0  0  0  0  0  0
   -1.8404   -3.5648    0.0000 H   0  0  0  0  0  0  0  0  0  0  0  0
   -3.2230   -6.2208    0.0000 H   0  0  0  0  0  0  0  0  0  0  0  0
   -4.5934   -5.6107    0.0000 H   0  0  0  0  0  0  0  0  0  0  0  0
   -6.6780   -4.3346    0.0000 H   0  0  0  0  0  0  0  0  0  0  0  0
   -7.7424   -2.1815    0.0000 H   0  0  0  0  0  0  0  0  0  0  0  0
   -6.4647   -3.7043    0.0000 H   0  0  0  0  0  0  0  0  0  0  0  0
   -6.3868   -0.7276    0.0000 H   0  0  0  0  0  0  0  0  0  0  0  0
   -6.5531   -0.0648    0.0000 H   0  0  0  0  0  0  0  0  0  0  0  0
   -6.6718   -1.4215    0.0000 H   0  0  0  0  0  0  0  0  0  0  0  0
   -6.1128    0.9242    0.0000 H   0  0  0  0  0  0  0  0  0  0  0  0
   -5.3408    3.4120    0.0000 H   0  0  0  0  0  0  0  0  0  0  0  0
   -6.1395    2.7299    0.0000 H   0  0  0  0  0  0  0  0  0  0  0  0
   -3.3359    2.1593    0.0000 H   0  0  0  0  0  0  0  0  0  0  0  0
   -6.0985    2.0497    0.0000 H   0  0  0  0  0  0  0  0  0  0  0  0
   -4.9064    3.0324    0.0000 H   0  0  0  0  0  0  0  0  0  0  0  0
   -5.7905    0.5357    0.0000 H   0  0  0  0  0  0  0  0  0  0  0  0
   -2.5481    2.6334    0.0000 H   0  0  0  0  0  0  0  0  0  0  0  0
   -6.6956    3.5664    0.0000 H   0  0  0  0  0  0  0  0  0  0  0  0
   -3.4526    8.9942    0.0000 H   0  0  0  0  0  0  0  0  0  0  0  0
   -4.8856    7.7038    0.0000 H   0  0  0  0  0  0  0  0  0  0  0  0
   -0.6609    8.6018    0.0000 H   0  0  0  0  0  0  0  0  0  0  0  0
   -2.4949    9.1977    0.0000 H   0  0  0  0  0  0  0  0  0  0  0  0
    0.5379    7.0041    0.0000 H   0  0  0  0  0  0  0  0  0  0  0  0
   -1.8760    2.4109    0.0000 H   0  0  0  0  0  0  0  0  0  0  0  0
   -1.1361    3.7563    0.0000 H   0  0  0  0  0  0  0  0  0  0  0  0
   -4.9667    3.4488    0.0000 H   0  0  0  0  0  0  0  0  0  0  0  0
   -6.7832    2.7852    0.0000 H   0  0  0  0  0  0  0  0  0  0  0  0
   -8.0429    2.7855    0.0000 H   0  0  0  0  0  0  0  0  0  0  0  0
   -6.9079    0.3648    0.0000 H   0  0  0  0  0  0  0  0  0  0  0  0
   -5.3579   -0.9653    0.0000 H   0  0  0  0  0  0  0  0  0  0  0  0
   -3.8717   -2.8916    0.0000 H   0  0  0  0  0  0  0  0  0  0  0  0
   -4.7377   -1.6236    0.0000 H   0  0  0  0  0  0  0  0  0  0  0  0
   -0.8153   -3.2866    0.0000 H   0  0  0  0  0  0  0  0  0  0  0  0
    0.0827   -1.3632    0.0000 H   0  0  0  0  0  0  0  0  0  0  0  0
   -0.9871    1.6282    0.0000 H   0  0  0  0  0  0  0  0  0  0  0  0
   -1.8033   -1.3602    0.0000 H   0  0  0  0  0  0  0  0  0  0  0  0
    1.5572   -2.4200    0.0000 H   0  0  0  0  0  0  0  0  0  0  0  0
    1.8697    2.6147    0.0000 H   0  0  0  0  0  0  0  0  0  0  0  0
    1.5276   -0.1873    0.0000 H   0  0  0  0  0  0  0  0  0  0  0  0
    3.1545    0.3729    0.0000 H   0  0  0  0  0  0  0  0  0  0  0  0
    4.2566    3.0965    0.0000 H   0  0  0  0  0  0  0  0  0  0  0  0
    1.9085    5.1408    0.0000 H   0  0  0  0  0  0  0  0  0  0  0  0
    4.9353    4.8886    0.0000 H   0  0  0  0  0  0  0  0  0  0  0  0
    2.9549    5.6488    0.0000 H   0  0  0  0  0  0  0  0  0  0  0  0
    4.3376    2.9927    0.0000 H   0  0  0  0  0  0  0  0  0  0  0  0
    1.1660    4.7910    0.0000 H   0  0  0  0  0  0  0  0  0  0  0  0
    0.1343    6.1473    0.0000 H   0  0  0  0  0  0  0  0  0  0  0  0
   -1.4997    4.9159    0.0000 H   0  0  0  0  0  0  0  0  0  0  0  0
   -2.1428    6.5647    0.0000 H   0  0  0  0  0  0  0  0  0  0  0  0
   -4.3155    5.3167    0.0000 H   0  0  0  0  0  0  0  0  0  0  0  0
   -5.6271    6.2661    0.0000 H   0  0  0  0  0  0  0  0  0  0  0  0
   -6.0574    4.3254    0.0000 H   0  0  0  0  0  0  0  0  0  0  0  0
   -3.7813    6.2017    0.0000 H   0  0  0  0  0  0  0  0  0  0  0  0
   -2.2157   -3.8242    0.0000 H   0  0  0  0  0  0  0  0  0  0  0  0
   -5.2848    2.2670    0.0000 H   0  0  0  0  0  0  0  0  0  0  0  0
  1  2  1  0
  2  3  1  0
  3  4  1  0
  4  5  1  0
  5  6  1  0
  5  7  1  0
  7  8  1  0
  8  9  1  0
  8 10  1  0
 10 11  1  0
 10 12  1  0
 12 13  1  0
 13 14  1  0
 14 15  1  0
 15 16  1  0
 16 17  1  0
 17 18  1  0
 18 19  1  0
 19 20  1  0
 20 21  1  0
 20 22  1  0
 22 23  1  0
 23 24  1  0
 24 25  1  0
 25 26  1  0
 26 27  1  0
 27 28  1  0
 28 29  1  0
 29 30  1  0
 30 31  1  0
 28 32  1  0
 32 33  1  0
 33 34  1  0
 34 35  1  0
 34 36  1  0
 36 37  1  0
 36 38  1  0
 38 39  1  0
 39 40  1  0
 40 41  1  0
 41 42  1  0
 42 43  1  0
 25 44  1  0
 23 45  1  0
 44  3  1  0
 44  5  1  0
 27 10  1  0
 30 28  1  0
 38 32  1  0
 42 12  1  0
 42 13  1  0
 41 14  1  0
 40 17  1  0
 45 19  1  0
 45 22  1  0
  1 46  1  0
  1 47  1  0
  1 48  1  0
  2 49  1  0
  2 50  1  0
  3 51  1  0
  4 52  1  0
  6 53  1  0
  6 54  1  0
  6 55  1  0
  7 56  1  0
  7 57  1  0
  8 58  1  0
  9 59  1  0
  9 60  1  0
  9 61  1  0
 11 62  1  0
 11 63  1  0
 11 64  1  0
 12 65  1  0
 13 66  1  0
 15 67  1  0
 15 68  1  0
 16 69  1  0
 16 70  1  0
 17 71  1  0
 18 72  1  0
 18 73  1  0
 19 74  1  0
 20 75  1  0
 21 76  1  0
 22 77  1  0
 23 78  1  0
 24 79  1  0
 24 80  1  0
 25 81  1  0
 26 82  1  0
 27 83  1  0
 30 84  1  0
 31 85  1  0
 32 86  1  0
 33 87  1  0
 33 88  1  0
 34 89  1  0
 36 90  1  0
 37 91  1  0
 37 92  1  0
 37 93  1  0
 38 94  1  0
 39 95  1  0
 39 96  1  0
 40 97  1  0
 41 98  1  0
 43 99  1  0
 43100  1  0
 43101  1  0
 44102  1  0
 45103  1  0
M  END
$$$$
