
     RDKit          2D

 34 39  0  0  0  0  0  0  0  0999 V2000
   -3.1586   -1.9635    0.0000 C   0  0  0  0  0  0  0  0  0  0  0  0
   -1.8596   -1.2135    0.0000 C   0  0  0  0  0  0  0  0  0  0  0  0
   -2.7413    0.0000    0.0000 C   0  0  0  0  0  0  0  0  0  0  0  0
   -3.8560    1.0037    0.0000 C   0  0  0  0  0  0  0  0  0  0  0  0
   -4.9707    2.0074    0.0000 C   0  0  0  0  0  0  0  0  0  0  0  0
   -6.3615    2.5693    0.0000 C   0  0  0  0  0  0  0  0  0  0  0  0
   -6.1527    1.0839    0.0000 C   0  0  0  0  0  0  0  0  0  0  0  0
   -1.8596    1.2135    0.0000 C   0  0  0  0  0  0  0  0  0  0  0  0
   -1.2495    2.5838    0.0000 C   0  0  0  0  0  0  0  0  0  0  0  0
   -0.6394    3.9542    0.0000 C   0  0  0  0  0  0  0  0  0  0  0  0
   -2.1312    3.7974    0.0000 C   0  0  0  0  0  0  0  0  0  0  0  0
    0.2423    2.7406    0.0000 C   0  0  0  0  0  0  0  0  0  0  0  0
   -0.4330    0.7500    0.0000 N   0  0  0  0  0  0  0  0  0  0  0  0
    0.8660    0.0000    0.0000 C   0  0  0  0  0  0  0  0  0  0  0  0
   -0.4330   -0.7500    0.0000 C   0  0  0  0  0  0  0  0  0  0  0  0
   -4.4577   -2.7135    0.0000 H   0  0  0  0  0  0  0  0  0  0  0  0
   -2.4086   -3.2626    0.0000 H   0  0  0  0  0  0  0  0  0  0  0  0
   -3.6384   -1.3269    0.0000 H   0  0  0  0  0  0  0  0  0  0  0  0
   -1.2495   -2.5838    0.0000 H   0  0  0  0  0  0  0  0  0  0  0  0
   -3.3943   -0.4572    0.0000 H   0  0  0  0  0  0  0  0  0  0  0  0
   -4.7163   -0.2251    0.0000 H   0  0  0  0  0  0  0  0  0  0  0  0
   -2.9957    2.2324    0.0000 H   0  0  0  0  0  0  0  0  0  0  0  0
   -4.1758    3.2795    0.0000 H   0  0  0  0  0  0  0  0  0  0  0  0
   -6.0496    4.0365    0.0000 H   0  0  0  0  0  0  0  0  0  0  0  0
   -7.8606    2.6217    0.0000 H   0  0  0  0  0  0  0  0  0  0  0  0
   -7.5793    0.6204    0.0000 H   0  0  0  0  0  0  0  0  0  0  0  0
   -5.6152   -0.3165    0.0000 H   0  0  0  0  0  0  0  0  0  0  0  0
   -3.0575    2.1163    0.0000 H   0  0  0  0  0  0  0  0  0  0  0  0
   -0.0293    5.3245    0.0000 H   0  0  0  0  0  0  0  0  0  0  0  0
   -3.5015    4.4075    0.0000 H   0  0  0  0  0  0  0  0  0  0  0  0
    1.6126    2.1305    0.0000 H   0  0  0  0  0  0  0  0  0  0  0  0
    1.8302    1.1491    0.0000 H   0  0  0  0  0  0  0  0  0  0  0  0
    1.8302   -1.1491    0.0000 H   0  0  0  0  0  0  0  0  0  0  0  0
    0.1771   -2.1203    0.0000 H   0  0  0  0  0  0  0  0  0  0  0  0
  1  2  1  0
  2  3  1  0
  3  4  1  0
  4  5  1  0
  5  6  1  0
  6  7  1  0
  3  8  1  0
  8  9  1  0
  9 10  1  0
 10 11  1  0
 11 12  1  0
  8 13  1  0
 13 14  1  0
 14 15  1  0
 15  2  1  0
  7  5  1  0
 11  9  1  0
 15 13  1  0
 12  9  1  0
 12 10  1  0
  1 16  1  0
  1 17  1  0
  1 18  1  0
  2 19  1  0
  3 20  1  0
  4 21  1  0
  4 22  1  0
  5 23  1  0
  6 24  1  0
  6 25  1  0
  7 26  1  0
  7 27  1  0
  8 28  1  0
 10 29  1  0
 11 30  1  0
 12 31  1  0
 14 32  1  0
 14 33  1  0
 15 34  1  0
M  END
$$$$
