
     RDKit          2D

 22 26  0  0  0  0  0  0  0  0999 V2000
    3.9153    1.7605    0.0000 O   0  0  0  0  0  0  0  0  0  0  0  0
    3.9153    0.2605    0.0000 C   0  0  0  0  0  0  0  0  0  0  0  0
    5.3925    0.0000    0.0000 C   0  0  0  0  0  0  0  0  0  0  0  0
    4.4283   -1.1491    0.0000 C   0  0  0  0  0  0  0  0  0  0  0  0
    5.3925   -2.2981    0.0000 Br  0  0  0  0  0  0  0  0  0  0  0  0
    3.1292   -1.8991    0.0000 C   0  0  0  0  0  0  0  0  0  0  0  0
    1.6520   -2.1595    0.0000 N   0  0  0  0  0  0  0  0  0  0  0  0
    2.1651   -0.7500    0.0000 C   0  0  0  0  0  0  0  0  0  0  0  0
    0.8660    0.0000    0.0000 C   0  0  0  0  0  0  0  0  0  0  0  0
   -0.4330    0.7500    0.0000 C   0  0  0  0  0  0  0  0  0  0  0  0
   -0.4330   -0.7500    0.0000 C   0  0  0  0  0  0  0  0  0  0  0  0
    0.8660    1.5000    0.0000 C   0  0  0  0  0  0  0  0  0  0  0  0
    2.6162    2.5105    0.0000 H   0  0  0  0  0  0  0  0  0  0  0  0
    3.1192    0.2188    0.0000 H   0  0  0  0  0  0  0  0  0  0  0  0
    6.6915   -0.7500    0.0000 H   0  0  0  0  0  0  0  0  0  0  0  0
    5.9055    1.4095    0.0000 H   0  0  0  0  0  0  0  0  0  0  0  0
    3.6423   -3.3086    0.0000 H   0  0  0  0  0  0  0  0  0  0  0  0
    0.5030   -3.1237    0.0000 H   0  0  0  0  0  0  0  0  0  0  0  0
    2.5992   -0.0814    0.0000 H   0  0  0  0  0  0  0  0  0  0  0  0
   -1.7321    1.5000    0.0000 H   0  0  0  0  0  0  0  0  0  0  0  0
   -1.1830   -2.0490    0.0000 H   0  0  0  0  0  0  0  0  0  0  0  0
    1.6160    2.7990    0.0000 H   0  0  0  0  0  0  0  0  0  0  0  0
  1  2  1  0
  2  3  1  0
  3  4  1  0
  4  5  1  0
  4  6  1  0
  6  7  1  0
  7  8  1  0
  8  9  1  0
  9 10  1  0
 10 11  1  0
 11 12  1  0
  4  2  1  0
  8  6  1  0
 11  9  1  0
 12  9  1  0
 12 10  1  0
  1 13  1  0
  2 14  1  0
  3 15  1  0
  3 16  1  0
  6 17  1  0
  7 18  1  0
  8 19  1  0
 10 20  1  0
 11 21  1  0
 12 22  1  0
M  END
$$$$
