
     RDKit          2D

 32 33  0  0  0  0  0  0  0  0999 V2000
   -3.8597    1.8481    0.0000 C   0  0  0  0  0  0  0  0  0  0  0  0
   -2.5607    2.5981    0.0000 C   0  0  0  0  0  0  0  0  0  0  0  0
   -1.2616    3.3481    0.0000 C   0  0  0  0  0  0  0  0  0  0  0  0
    0.0374    4.0981    0.0000 N   0  0  0  0  0  0  0  0  0  0  0  0
   -1.8107    1.2990    0.0000 C   0  0  0  0  0  0  0  0  0  0  0  0
   -1.0607    0.0000    0.0000 C   0  0  0  0  0  0  0  0  0  0  0  0
   -2.5095   -0.3882    0.0000 C   0  0  0  0  0  0  0  0  0  0  0  0
   -2.8978   -1.8371    0.0000 C   0  0  0  0  0  0  0  0  0  0  0  0
   -1.8371   -2.8978    0.0000 C   0  0  0  0  0  0  0  0  0  0  0  0
   -0.3882   -2.5095    0.0000 C   0  0  0  0  0  0  0  0  0  0  0  0
   -0.0000   -1.0607    0.0000 C   0  0  0  0  0  0  0  0  0  0  0  0
    1.0607    0.0000    0.0000 O   0  0  0  0  0  0  0  0  0  0  0  0
    0.0000    1.0607    0.0000 C   0  0  0  0  0  0  0  0  0  0  0  0
   -5.1587    1.0981    0.0000 H   0  0  0  0  0  0  0  0  0  0  0  0
   -4.6097    3.1471    0.0000 H   0  0  0  0  0  0  0  0  0  0  0  0
   -3.4611    1.1577    0.0000 H   0  0  0  0  0  0  0  0  0  0  0  0
   -3.3107    3.8971    0.0000 H   0  0  0  0  0  0  0  0  0  0  0  0
   -2.0116    4.6471    0.0000 H   0  0  0  0  0  0  0  0  0  0  0  0
   -0.5116    2.0490    0.0000 H   0  0  0  0  0  0  0  0  0  0  0  0
    0.0374    5.5981    0.0000 H   0  0  0  0  0  0  0  0  0  0  0  0
    1.3365    3.3481    0.0000 H   0  0  0  0  0  0  0  0  0  0  0  0
   -2.5010    0.9005    0.0000 H   0  0  0  0  0  0  0  0  0  0  0  0
   -0.5116    2.0490    0.0000 H   0  0  0  0  0  0  0  0  0  0  0  0
   -4.0038   -0.2575    0.0000 H   0  0  0  0  0  0  0  0  0  0  0  0
   -2.6403    1.1061    0.0000 H   0  0  0  0  0  0  0  0  0  0  0  0
   -4.3467   -2.2253    0.0000 H   0  0  0  0  0  0  0  0  0  0  0  0
   -2.2253   -4.3467    0.0000 H   0  0  0  0  0  0  0  0  0  0  0  0
    1.0790   -2.8215    0.0000 H   0  0  0  0  0  0  0  0  0  0  0  0
   -0.2575   -4.0038    0.0000 H   0  0  0  0  0  0  0  0  0  0  0  0
    1.3808   -1.6467    0.0000 H   0  0  0  0  0  0  0  0  0  0  0  0
   -1.0607    2.1213    0.0000 H   0  0  0  0  0  0  0  0  0  0  0  0
    1.0607    2.1213    0.0000 H   0  0  0  0  0  0  0  0  0  0  0  0
  1  2  1  0
  2  3  1  0
  3  4  1  0
  2  5  1  0
  5  6  1  0
  6  7  1  0
  7  8  1  0
  8  9  2  0
  9 10  1  0
 10 11  1  0
 11 12  1  0
 12 13  1  0
 11  6  1  0
 13  6  1  0
  1 14  1  0
  1 15  1  0
  1 16  1  0
  2 17  1  0
  3 18  1  0
  3 19  1  0
  4 20  1  0
  4 21  1  0
  5 22  1  0
  5 23  1  0
  7 24  1  0
  7 25  1  0
  8 26  1  0
  9 27  1  0
 10 28  1  0
 10 29  1  0
 11 30  1  0
 13 31  1  0
 13 32  1  0
M  END
$$$$
