
     RDKit          2D

 15 17  0  0  0  0  0  0  0  0999 V2000
    1.8302    1.1491    0.0000 N   0  0  0  0  0  2  0  0  0  0  0  0
    0.8660    0.0000    0.0000 C   0  0  0  0  0  0  0  0  0  0  0  0
    1.8302   -1.1491    0.0000 N   0  0  0  0  0  2  0  0  0  0  0  0
   -0.4330    0.7500    0.0000 N   0  0  0  0  0  0  0  0  0  0  0  0
   -1.7321    0.0000    0.0000 C   0  0  0  0  0  0  0  0  0  0  0  0
   -3.0311    0.7500    0.0000 C   0  0  0  0  0  0  0  0  0  0  0  0
   -3.0311    2.2500    0.0000 O   0  0  0  0  0  0  0  0  0  0  0  0
   -4.3301    0.0000    0.0000 O   0  0  0  0  0  0  0  0  0  0  0  0
   -1.7321   -1.5000    0.0000 C   0  0  0  0  0  0  0  0  0  0  0  0
   -0.4330   -0.7500    0.0000 C   0  0  0  0  0  0  0  0  0  0  0  0
    3.3074    0.8886    0.0000 H   0  0  0  0  0  0  0  0  0  0  0  0
    3.3074   -0.8886    0.0000 H   0  0  0  0  0  0  0  0  0  0  0  0
   -5.6292    0.7500    0.0000 H   0  0  0  0  0  0  0  0  0  0  0  0
   -3.2093   -1.7605    0.0000 H   0  0  0  0  0  0  0  0  0  0  0  0
   -1.2190   -2.9095    0.0000 H   0  0  0  0  0  0  0  0  0  0  0  0
  1  2  1  0
  2  3  1  0
  2  4  1  0
  4  5  1  0
  5  6  1  1
  6  7  2  0
  6  8  1  0
  5  9  1  0
 10  9  1  1
 10  2  1  0
 10  4  1  0
 10  5  1  0
  1 11  1  0
  3 12  1  0
  8 13  1  0
  9 14  1  0
  9 15  1  0
M  RAD  2   1   2   3   2
M  END
$$$$
