
     RDKit          2D

 80 87  0  0  0  0  0  0  0  0999 V2000
    3.1534   -0.6403    0.0000 C   0  0  0  0  0  0  0  0  0  0  0  0
    1.8544    0.1097    0.0000 C   0  0  0  0  0  0  0  0  0  0  0  0
    0.5554    0.8597    0.0000 C   0  0  0  0  0  0  0  0  0  0  0  0
   -0.7437    1.6097    0.0000 C   0  0  0  0  0  0  0  0  0  0  0  0
   -2.0427    2.3597    0.0000 C   0  0  0  0  0  0  0  0  0  0  0  0
   -3.3417    3.1097    0.0000 C   0  0  0  0  0  0  0  0  0  0  0  0
   -4.6408    3.8597    0.0000 C   0  0  0  0  0  0  0  0  0  0  0  0
   -5.6050    2.7106    0.0000 C   0  0  0  0  0  0  0  0  0  0  0  0
   -6.5692    1.5616    0.0000 C   0  0  0  0  0  0  0  0  0  0  0  0
   -7.2734    0.2371    0.0000 C   0  0  0  0  0  0  0  0  0  0  0  0
   -8.7506    0.4976    0.0000 C   0  0  0  0  0  0  0  0  0  0  0  0
   -8.9593    1.9830    0.0000 N   0  0  0  0  0  0  0  0  0  0  0  0
  -10.2838    2.6872    0.0000 C   0  0  0  0  0  0  0  0  0  0  0  0
   -7.6111    2.6406    0.0000 C   0  0  0  0  0  0  0  0  0  0  0  0
   -5.6050    5.0088    0.0000 C   0  0  0  0  0  0  0  0  0  0  0  0
   -4.1278    5.2692    0.0000 C   0  0  0  0  0  0  0  0  0  0  0  0
   -2.7927    1.0607    0.0000 C   0  0  0  0  0  0  0  0  0  0  0  0
   -3.8534   -0.0000    0.0000 C   0  0  0  0  0  0  0  0  0  0  0  0
   -4.2416    1.4489    0.0000 C   0  0  0  0  0  0  0  0  0  0  0  0
   -2.7927   -1.0607    0.0000 C   0  0  0  0  0  0  0  0  0  0  0  0
   -1.7321    0.0000    0.0000 C   0  0  0  0  0  0  0  0  0  0  0  0
   -0.4330    0.7500    0.0000 C   0  0  0  0  0  0  0  0  0  0  0  0
    0.8660    0.0000    0.0000 C   0  0  0  0  0  0  0  0  0  0  0  0
   -0.4330   -0.7500    0.0000 C   0  0  0  0  0  0  0  0  0  0  0  0
    2.6044    1.4087    0.0000 C   0  0  0  0  0  0  0  0  0  0  0  0
    3.3544    2.7078    0.0000 C   0  0  0  0  0  0  0  0  0  0  0  0
    2.0554    3.4578    0.0000 C   0  0  0  0  0  0  0  0  0  0  0  0
    4.1044    4.0068    0.0000 C   0  0  0  0  0  0  0  0  0  0  0  0
    5.6044    4.0068    0.0000 C   0  0  0  0  0  0  0  0  0  0  0  0
    6.3544    5.3059    0.0000 C   0  0  0  0  0  0  0  0  0  0  0  0
    7.5035    6.2700    0.0000 C   0  0  0  0  0  0  0  0  0  0  0  0
    7.7639    4.7928    0.0000 C   0  0  0  0  0  0  0  0  0  0  0  0
    9.2639    4.7928    0.0000 C   0  0  0  0  0  0  0  0  0  0  0  0
    4.4525   -1.3903    0.0000 H   0  0  0  0  0  0  0  0  0  0  0  0
    4.0562    0.5576    0.0000 H   0  0  0  0  0  0  0  0  0  0  0  0
    2.4034   -1.9393    0.0000 H   0  0  0  0  0  0  0  0  0  0  0  0
    1.2683   -1.2711    0.0000 H   0  0  0  0  0  0  0  0  0  0  0  0
    1.1414    2.2405    0.0000 H   0  0  0  0  0  0  0  0  0  0  0  0
    0.3357    0.0934    0.0000 H   0  0  0  0  0  0  0  0  0  0  0  0
   -1.1571    0.1678    0.0000 H   0  0  0  0  0  0  0  0  0  0  0  0
   -0.1576    2.9905    0.0000 H   0  0  0  0  0  0  0  0  0  0  0  0
   -1.2927    3.6587    0.0000 H   0  0  0  0  0  0  0  0  0  0  0  0
   -2.4390    4.3076    0.0000 H   0  0  0  0  0  0  0  0  0  0  0  0
   -4.3838    2.0307    0.0000 H   0  0  0  0  0  0  0  0  0  0  0  0
   -6.7540    3.6748    0.0000 H   0  0  0  0  0  0  0  0  0  0  0  0
   -6.9532    3.3681    0.0000 H   0  0  0  0  0  0  0  0  0  0  0  0
   -5.3256    0.7228    0.0000 H   0  0  0  0  0  0  0  0  0  0  0  0
   -6.6158   -1.1110    0.0000 H   0  0  0  0  0  0  0  0  0  0  0  0
   -9.8296   -0.5444    0.0000 H   0  0  0  0  0  0  0  0  0  0  0  0
  -11.6082    3.3914    0.0000 H   0  0  0  0  0  0  0  0  0  0  0  0
   -9.5795    4.0116    0.0000 H   0  0  0  0  0  0  0  0  0  0  0  0
  -10.9880    1.3628    0.0000 H   0  0  0  0  0  0  0  0  0  0  0  0
   -8.4060    3.9126    0.0000 H   0  0  0  0  0  0  0  0  0  0  0  0
   -8.7602    1.6763    0.0000 H   0  0  0  0  0  0  0  0  0  0  0  0
   -7.0469    4.5954    0.0000 H   0  0  0  0  0  0  0  0  0  0  0  0
   -6.1180    6.4183    0.0000 H   0  0  0  0  0  0  0  0  0  0  0  0
   -4.1278    6.7692    0.0000 H   0  0  0  0  0  0  0  0  0  0  0  0
   -2.6298    5.1908    0.0000 H   0  0  0  0  0  0  0  0  0  0  0  0
   -5.1524   -0.7500    0.0000 H   0  0  0  0  0  0  0  0  0  0  0  0
   -5.5274    2.2214    0.0000 H   0  0  0  0  0  0  0  0  0  0  0  0
   -2.7927   -2.5607    0.0000 H   0  0  0  0  0  0  0  0  0  0  0  0
    0.1047    2.1503    0.0000 H   0  0  0  0  0  0  0  0  0  0  0  0
    1.8302    1.1491    0.0000 H   0  0  0  0  0  0  0  0  0  0  0  0
    1.6830   -1.2580    0.0000 H   0  0  0  0  0  0  0  0  0  0  0  0
   -0.4330   -2.2500    0.0000 H   0  0  0  0  0  0  0  0  0  0  0  0
    3.9852    0.8227    0.0000 H   0  0  0  0  0  0  0  0  0  0  0  0
    1.4065    2.3115    0.0000 H   0  0  0  0  0  0  0  0  0  0  0  0
    4.6534    1.9578    0.0000 H   0  0  0  0  0  0  0  0  0  0  0  0
    0.7563    4.2078    0.0000 H   0  0  0  0  0  0  0  0  0  0  0  0
    2.8054    4.7568    0.0000 H   0  0  0  0  0  0  0  0  0  0  0  0
    2.4687    4.8997    0.0000 H   0  0  0  0  0  0  0  0  0  0  0  0
    3.6910    5.4487    0.0000 H   0  0  0  0  0  0  0  0  0  0  0  0
    6.3544    2.7078    0.0000 H   0  0  0  0  0  0  0  0  0  0  0  0
    5.2053    6.2700    0.0000 H   0  0  0  0  0  0  0  0  0  0  0  0
    6.7535    7.5691    0.0000 H   0  0  0  0  0  0  0  0  0  0  0  0
    8.8400    6.9511    0.0000 H   0  0  0  0  0  0  0  0  0  0  0  0
    7.5035    3.3156    0.0000 H   0  0  0  0  0  0  0  0  0  0  0  0
   10.7639    4.7928    0.0000 H   0  0  0  0  0  0  0  0  0  0  0  0
    9.2639    3.2928    0.0000 H   0  0  0  0  0  0  0  0  0  0  0  0
    9.4468    6.2816    0.0000 H   0  0  0  0  0  0  0  0  0  0  0  0
  1  2  1  0
  2  3  1  0
  3  4  1  0
  4  5  1  0
  5  6  1  0
  6  7  1  0
  7  8  1  0
  8  9  1  0
  9 10  1  0
 10 11  2  0
 11 12  1  0
 12 13  1  0
 12 14  1  0
  7 15  1  0
 15 16  1  0
  5 17  1  0
 17 18  1  0
 18 19  1  0
 19 20  1  0
 20 21  1  0
 21 22  1  1
 22 23  1  0
 23 24  1  0
  2 25  1  0
 25 26  1  0
 26 27  1  0
 26 28  1  0
 28 29  2  3
 29 30  1  0
 30 31  1  0
 31 32  1  0
 32 33  1  0
 16  7  1  0
 19 17  1  0
 24 21  1  0
 32 30  1  0
 14  9  1  0
 17 21  1  1
 24 22  1  0
 20 18  1  0
  1 34  1  0
  1 35  1  0
  1 36  1  0
  2 37  1  6
  3 38  1  0
  3 39  1  0
  4 40  1  0
  4 41  1  0
  5 42  1  6
  6 43  1  0
  6 44  1  0
  8 45  1  0
  8 46  1  0
  9 47  1  1
 10 48  1  0
 11 49  1  0
 13 50  1  0
 13 51  1  0
 13 52  1  0
 14 53  1  0
 14 54  1  0
 15 55  1  0
 15 56  1  0
 16 57  1  0
 16 58  1  0
 18 59  1  6
 19 60  1  1
 20 61  1  1
 22 62  1  6
 23 63  1  0
 23 64  1  0
 24 65  1  6
 25 66  1  0
 25 67  1  0
 26 68  1  6
 27 69  1  0
 27 70  1  0
 27 71  1  0
 28 72  1  0
 29 73  1  0
 30 74  1  6
 31 75  1  0
 31 76  1  0
 32 77  1  6
 33 78  1  0
 33 79  1  0
 33 80  1  0
M  END
$$$$
