
     RDKit          2D

 95104  0  0  0  0  0  0  0  0999 V2000
   -7.2342   10.9512    0.0000 C   0  0  0  0  0  0  0  0  0  0  0  0
   -6.5300    9.6268    0.0000 C   0  0  0  0  0  0  0  0  0  0  0  0
   -5.0309    9.5745    0.0000 C   0  0  0  0  0  0  0  0  0  0  0  0
   -3.5318    9.5221    0.0000 C   0  0  0  0  0  0  0  0  0  0  0  0
   -2.1410   10.0840    0.0000 C   0  0  0  0  0  0  0  0  0  0  0  0
   -1.1768    8.9350    0.0000 C   0  0  0  0  0  0  0  0  0  0  0  0
   -1.9717    7.6629    0.0000 C   0  0  0  0  0  0  0  0  0  0  0  0
   -1.0900    6.4494    0.0000 C   0  0  0  0  0  0  0  0  0  0  0  0
   -1.1947    4.9530    0.0000 C   0  0  0  0  0  0  0  0  0  0  0  0
   -2.2367    3.8740    0.0000 C   0  0  0  0  0  0  0  0  0  0  0  0
   -2.6501    5.3159    0.0000 C   0  0  0  0  0  0  0  0  0  0  0  0
   -3.8937    6.1547    0.0000 C   0  0  0  0  0  0  0  0  0  0  0  0
   -5.3855    5.9979    0.0000 C   0  0  0  0  0  0  0  0  0  0  0  0
   -6.4274    4.9189    0.0000 C   0  0  0  0  0  0  0  0  0  0  0  0
   -6.5321    3.4225    0.0000 C   0  0  0  0  0  0  0  0  0  0  0  0
   -5.6504    2.2090    0.0000 C   0  0  0  0  0  0  0  0  0  0  0  0
   -5.2369    0.7671    0.0000 C   0  0  0  0  0  0  0  0  0  0  0  0
   -4.3553   -0.4464    0.0000 C   0  0  0  0  0  0  0  0  0  0  0  0
   -3.9418   -1.8883    0.0000 C   0  0  0  0  0  0  0  0  0  0  0  0
   -4.3047   -3.3437    0.0000 C   0  0  0  0  0  0  0  0  0  0  0  0
   -5.7601   -2.9808    0.0000 C   0  0  0  0  0  0  0  0  0  0  0  0
   -5.3973   -1.5254    0.0000 C   0  0  0  0  0  0  0  0  0  0  0  0
   -4.1950    1.8461    0.0000 C   0  0  0  0  0  0  0  0  0  0  0  0
   -2.8468    2.5037    0.0000 C   0  0  0  0  0  0  0  0  0  0  0  0
   -1.7321    1.5000    0.0000 C   0  0  0  0  0  0  0  0  0  0  0  0
   -0.4330    2.2500    0.0000 C   0  0  0  0  0  0  0  0  0  0  0  0
   -0.7449    3.7172    0.0000 C   0  0  0  0  0  0  0  0  0  0  0  0
   -0.4330    0.7500    0.0000 C   0  0  0  0  0  0  0  0  0  0  0  0
    0.8660    0.0000    0.0000 C   0  0  0  0  0  0  0  0  0  0  0  0
   -0.4330   -0.7500    0.0000 C   0  0  0  0  0  0  0  0  0  0  0  0
    0.0800   -2.1595    0.0000 C   0  0  0  0  0  0  0  0  0  0  0  0
   -4.7754    7.3682    0.0000 C   0  0  0  0  0  0  0  0  0  0  0  0
   -6.2631    7.5597    0.0000 C   0  0  0  0  0  0  0  0  0  0  0  0
   -7.7508    7.7511    0.0000 C   0  0  0  0  0  0  0  0  0  0  0  0
   -3.4272    8.0258    0.0000 C   0  0  0  0  0  0  0  0  0  0  0  0
   -3.3230   11.0075    0.0000 C   0  0  0  0  0  0  0  0  0  0  0  0
   -2.6188   12.3319    0.0000 C   0  0  0  0  0  0  0  0  0  0  0  0
   -1.9146   13.6564    0.0000 C   0  0  0  0  0  0  0  0  0  0  0  0
   -3.9433   13.0362    0.0000 O   0  0  0  0  0  0  0  0  0  0  0  0
   -8.7333   11.0036    0.0000 H   0  0  0  0  0  0  0  0  0  0  0  0
   -6.4393   12.2233    0.0000 H   0  0  0  0  0  0  0  0  0  0  0  0
   -7.6090    8.5849    0.0000 H   0  0  0  0  0  0  0  0  0  0  0  0
   -5.6171    8.1938    0.0000 H   0  0  0  0  0  0  0  0  0  0  0  0
   -5.1617   11.0688    0.0000 H   0  0  0  0  0  0  0  0  0  0  0  0
   -0.9753   11.0280    0.0000 H   0  0  0  0  0  0  0  0  0  0  0  0
   -0.1349   10.0140    0.0000 H   0  0  0  0  0  0  0  0  0  0  0  0
    0.0565    8.3859    0.0000 H   0  0  0  0  0  0  0  0  0  0  0  0
   -0.9882    7.6972    0.0000 H   0  0  0  0  0  0  0  0  0  0  0  0
   -0.2362    7.1325    0.0000 H   0  0  0  0  0  0  0  0  0  0  0  0
    0.3675    6.0950    0.0000 H   0  0  0  0  0  0  0  0  0  0  0  0
    0.2980    5.1011    0.0000 H   0  0  0  0  0  0  0  0  0  0  0  0
   -0.6476    4.3732    0.0000 H   0  0  0  0  0  0  0  0  0  0  0  0
   -1.2436    5.8372    0.0000 H   0  0  0  0  0  0  0  0  0  0  0  0
   -2.0320    6.6826    0.0000 H   0  0  0  0  0  0  0  0  0  0  0  0
   -2.8580    7.2398    0.0000 H   0  0  0  0  0  0  0  0  0  0  0  0
   -3.9372    7.6541    0.0000 H   0  0  0  0  0  0  0  0  0  0  0  0
   -6.3497    7.1469    0.0000 H   0  0  0  0  0  0  0  0  0  0  0  0
   -7.4569    6.0099    0.0000 H   0  0  0  0  0  0  0  0  0  0  0  0
   -7.9201    4.7708    0.0000 H   0  0  0  0  0  0  0  0  0  0  0  0
   -7.9896    3.7769    0.0000 H   0  0  0  0  0  0  0  0  0  0  0  0
   -7.5804    2.3496    0.0000 H   0  0  0  0  0  0  0  0  0  0  0  0
   -6.9084    1.3920    0.0000 H   0  0  0  0  0  0  0  0  0  0  0  0
   -6.5851    0.1096    0.0000 H   0  0  0  0  0  0  0  0  0  0  0  0
   -2.8880   -0.1346    0.0000 H   0  0  0  0  0  0  0  0  0  0  0  0
   -2.4420   -1.8621    0.0000 H   0  0  0  0  0  0  0  0  0  0  0  0
   -4.6676   -4.7992    0.0000 H   0  0  0  0  0  0  0  0  0  0  0  0
   -2.8493   -3.7066    0.0000 H   0  0  0  0  0  0  0  0  0  0  0  0
   -7.2156   -2.6180    0.0000 H   0  0  0  0  0  0  0  0  0  0  0  0
   -6.1230   -4.4363    0.0000 H   0  0  0  0  0  0  0  0  0  0  0  0
   -6.7092   -0.7982    0.0000 H   0  0  0  0  0  0  0  0  0  0  0  0
   -3.3133    0.6326    0.0000 H   0  0  0  0  0  0  0  0  0  0  0  0
   -4.1458    3.2537    0.0000 H   0  0  0  0  0  0  0  0  0  0  0  0
   -2.2939    0.1092    0.0000 H   0  0  0  0  0  0  0  0  0  0  0  0
    1.0588    2.4068    0.0000 H   0  0  0  0  0  0  0  0  0  0  0  0
    0.7469    3.8740    0.0000 H   0  0  0  0  0  0  0  0  0  0  0  0
   -0.2072    5.1175    0.0000 H   0  0  0  0  0  0  0  0  0  0  0  0
    1.8302    1.1491    0.0000 H   0  0  0  0  0  0  0  0  0  0  0  0
    1.9631   -1.0230    0.0000 H   0  0  0  0  0  0  0  0  0  0  0  0
   -1.9102   -1.0105    0.0000 H   0  0  0  0  0  0  0  0  0  0  0  0
    0.5930   -3.5691    0.0000 H   0  0  0  0  0  0  0  0  0  0  0  0
   -1.3295   -2.6726    0.0000 H   0  0  0  0  0  0  0  0  0  0  0  0
    1.5416   -1.8222    0.0000 H   0  0  0  0  0  0  0  0  0  0  0  0
   -5.6852    8.5608    0.0000 H   0  0  0  0  0  0  0  0  0  0  0  0
   -6.6345    6.1064    0.0000 H   0  0  0  0  0  0  0  0  0  0  0  0
   -6.4373    9.0495    0.0000 H   0  0  0  0  0  0  0  0  0  0  0  0
   -9.2385    7.9426    0.0000 H   0  0  0  0  0  0  0  0  0  0  0  0
   -8.1222    6.2978    0.0000 H   0  0  0  0  0  0  0  0  0  0  0  0
   -7.5594    9.2389    0.0000 H   0  0  0  0  0  0  0  0  0  0  0  0
   -4.7262    8.7758    0.0000 H   0  0  0  0  0  0  0  0  0  0  0  0
   -4.6825   11.6415    0.0000 H   0  0  0  0  0  0  0  0  0  0  0  0
   -1.2184   11.7944    0.0000 H   0  0  0  0  0  0  0  0  0  0  0  0
   -1.2104   14.9808    0.0000 H   0  0  0  0  0  0  0  0  0  0  0  0
   -0.5902   12.9522    0.0000 H   0  0  0  0  0  0  0  0  0  0  0  0
   -3.1433   14.5168    0.0000 H   0  0  0  0  0  0  0  0  0  0  0  0
   -4.1779   14.5177    0.0000 H   0  0  0  0  0  0  0  0  0  0  0  0
  1  2  2  3
  2  3  1  0
  3  4  1  0
  4  5  1  0
  5  6  1  0
  6  7  1  0
  7  8  1  0
  8  9  1  0
  9 10  1  0
 10 11  1  0
 11 12  1  0
 12 13  1  0
 13 14  1  0
 14 15  1  0
 15 16  1  0
 16 17  1  0
 17 18  1  0
 18 19  1  0
 19 20  1  0
 20 21  1  0
 21 22  1  0
 17 23  1  0
 23 24  1  0
 24 25  1  0
 25 26  1  0
 26 27  1  0
 26 28  1  0
 28 29  1  0
 29 30  1  0
 30 31  1  0
 13 32  1  0
 32 33  1  0
 33 34  1  0
 32 35  1  0
  5 36  1  0
 36 37  1  0
 37 38  1  0
 37 39  1  0
 35  4  1  0
 36  4  1  0
 35  7  1  0
 24 10  1  0
 28 25  1  0
 27 10  1  0
 30 28  1  0
 23 16  1  0
 22 18  1  0
 22 19  1  0
  1 40  1  0
  1 41  1  0
  2 42  1  0
  3 43  1  0
  3 44  1  0
  5 45  1  0
  6 46  1  0
  6 47  1  0
  7 48  1  0
  8 49  1  0
  8 50  1  0
  9 51  1  0
  9 52  1  0
 11 53  1  0
 11 54  1  0
 12 55  1  0
 12 56  1  0
 13 57  1  0
 14 58  1  0
 14 59  1  0
 15 60  1  0
 15 61  1  0
 16 62  1  0
 17 63  1  0
 18 64  1  0
 19 65  1  0
 20 66  1  0
 20 67  1  0
 21 68  1  0
 21 69  1  0
 22 70  1  0
 23 71  1  0
 24 72  1  0
 25 73  1  0
 26 74  1  0
 27 75  1  0
 27 76  1  0
 29 77  1  0
 29 78  1  0
 30 79  1  0
 31 80  1  0
 31 81  1  0
 31 82  1  0
 32 83  1  0
 33 84  1  0
 33 85  1  0
 34 86  1  0
 34 87  1  0
 34 88  1  0
 35 89  1  0
 36 90  1  0
 37 91  1  0
 38 92  1  0
 38 93  1  0
 38 94  1  0
 39 95  1  0
M  END
$$$$
