
     RDKit          2D

 69 73  0  0  0  0  0  0  0  0999 V2000
   -4.1370   13.2250    0.0000 C   0  0  0  0  0  0  0  0  0  0  0  0
   -3.0764   12.1643    0.0000 C   0  0  0  0  0  0  0  0  0  0  0  0
   -2.0157   11.1036    0.0000 C   0  0  0  0  0  0  0  0  0  0  0  0
   -0.9550   10.0430    0.0000 C   0  0  0  0  0  0  0  0  0  0  0  0
    0.1056    8.9823    0.0000 C   0  0  0  0  0  0  0  0  0  0  0  0
    1.1663    7.9217    0.0000 C   0  0  0  0  0  0  0  0  0  0  0  0
    2.2269    6.8610    0.0000 C   0  0  0  0  0  0  0  0  0  0  0  0
    3.2876    5.8003    0.0000 C   0  0  0  0  0  0  0  0  0  0  0  0
    6.1854    5.8003    0.0000 C   0  0  0  0  0  0  0  0  0  0  0  0
    5.7971    4.3515    0.0000 C   0  0  0  0  0  0  0  0  0  0  0  0
    4.7365    3.2908    0.0000 C   0  0  0  0  0  0  0  0  0  0  0  0
    3.6758    4.3515    0.0000 C   0  0  0  0  0  0  0  0  0  0  0  0
    2.3768    3.6015    0.0000 C   0  0  0  0  0  0  0  0  0  0  0  0
    1.0777    2.8515    0.0000 C   0  0  0  0  0  0  0  0  0  0  0  0
   -0.0012    3.8935    0.0000 O   0  0  0  0  0  0  0  0  0  0  0  0
    1.0777    1.3515    0.0000 C   0  0  0  0  0  0  0  0  0  0  0  0
    1.7286    0.0000    0.0000 C   0  0  0  0  0  0  0  0  0  0  0  0
    1.0777   -1.3515    0.0000 C   0  0  0  0  0  0  0  0  0  0  0  0
   -0.3846   -1.6852    0.0000 C   0  0  0  0  0  0  0  0  0  0  0  0
   -1.5574   -0.7500    0.0000 C   0  0  0  0  0  0  0  0  0  0  0  0
   -2.2082   -2.1015    0.0000 C   0  0  0  0  0  0  0  0  0  0  0  0
   -1.5574    0.7500    0.0000 C   0  0  0  0  0  0  0  0  0  0  0  0
   -0.3846    1.6852    0.0000 C   0  0  0  0  0  0  0  0  0  0  0  0
   -1.5574    2.6205    0.0000 C   0  0  0  0  0  0  0  0  0  0  0  0
   -2.7301    3.5557    0.0000 C   0  0  0  0  0  0  0  0  0  0  0  0
   -3.9029    4.4909    0.0000 C   0  0  0  0  0  0  0  0  0  0  0  0
    4.7365    5.4121    0.0000 C   0  0  0  0  0  0  0  0  0  0  0  0
   -5.1977   14.2856    0.0000 H   0  0  0  0  0  0  0  0  0  0  0  0
   -3.0764   14.2856    0.0000 H   0  0  0  0  0  0  0  0  0  0  0  0
   -5.1977   12.1643    0.0000 H   0  0  0  0  0  0  0  0  0  0  0  0
   -2.0157   13.2250    0.0000 H   0  0  0  0  0  0  0  0  0  0  0  0
   -4.1370   11.1036    0.0000 H   0  0  0  0  0  0  0  0  0  0  0  0
   -3.0764   10.0430    0.0000 H   0  0  0  0  0  0  0  0  0  0  0  0
   -0.9550   12.1643    0.0000 H   0  0  0  0  0  0  0  0  0  0  0  0
    0.1056   11.1036    0.0000 H   0  0  0  0  0  0  0  0  0  0  0  0
   -2.0157    8.9823    0.0000 H   0  0  0  0  0  0  0  0  0  0  0  0
   -0.9550    7.9217    0.0000 H   0  0  0  0  0  0  0  0  0  0  0  0
    1.1663   10.0430    0.0000 H   0  0  0  0  0  0  0  0  0  0  0  0
    0.1056    6.8610    0.0000 H   0  0  0  0  0  0  0  0  0  0  0  0
    2.2269    8.9823    0.0000 H   0  0  0  0  0  0  0  0  0  0  0  0
    1.1663    5.8003    0.0000 H   0  0  0  0  0  0  0  0  0  0  0  0
    3.2876    7.9217    0.0000 H   0  0  0  0  0  0  0  0  0  0  0  0
    7.2460    6.8610    0.0000 H   0  0  0  0  0  0  0  0  0  0  0  0
    7.0962    3.6015    0.0000 H   0  0  0  0  0  0  0  0  0  0  0  0
    3.9885    2.3333    0.0000 H   0  0  0  0  0  0  0  0  0  0  0  0
    5.7971    2.2301    0.0000 H   0  0  0  0  0  0  0  0  0  0  0  0
    1.6268    4.9005    0.0000 H   0  0  0  0  0  0  0  0  0  0  0  0
    2.9843    2.5492    0.0000 H   0  0  0  0  0  0  0  0  0  0  0  0
    2.5401    1.6852    0.0000 H   0  0  0  0  0  0  0  0  0  0  0  0
    3.0066    0.7853    0.0000 H   0  0  0  0  0  0  0  0  0  0  0  0
    3.0066   -0.7853    0.0000 H   0  0  0  0  0  0  0  0  0  0  0  0
    2.4885   -1.8610    0.0000 H   0  0  0  0  0  0  0  0  0  0  0  0
    1.2606   -2.8403    0.0000 H   0  0  0  0  0  0  0  0  0  0  0  0
    0.0966   -3.1059    0.0000 H   0  0  0  0  0  0  0  0  0  0  0  0
   -0.9427   -2.2545    0.0000 H   0  0  0  0  0  0  0  0  0  0  0  0
   -3.0496   -0.5970    0.0000 H   0  0  0  0  0  0  0  0  0  0  0  0
   -2.8590   -3.4529    0.0000 H   0  0  0  0  0  0  0  0  0  0  0  0
   -3.5597   -1.4506    0.0000 H   0  0  0  0  0  0  0  0  0  0  0  0
   -1.5375   -2.5323    0.0000 H   0  0  0  0  0  0  0  0  0  0  0  0
   -3.0496    0.5970    0.0000 H   0  0  0  0  0  0  0  0  0  0  0  0
   -2.3681    2.0120    0.0000 H   0  0  0  0  0  0  0  0  0  0  0  0
    0.0966    3.1059    0.0000 H   0  0  0  0  0  0  0  0  0  0  0  0
   -0.7721    3.8985    0.0000 H   0  0  0  0  0  0  0  0  0  0  0  0
   -2.6286    1.5705    0.0000 H   0  0  0  0  0  0  0  0  0  0  0  0
   -1.7949    4.7285    0.0000 H   0  0  0  0  0  0  0  0  0  0  0  0
   -3.6654    2.3830    0.0000 H   0  0  0  0  0  0  0  0  0  0  0  0
   -5.0756    5.4262    0.0000 H   0  0  0  0  0  0  0  0  0  0  0  0
   -4.8381    3.3182    0.0000 H   0  0  0  0  0  0  0  0  0  0  0  0
   -2.9677    5.6637    0.0000 H   0  0  0  0  0  0  0  0  0  0  0  0
  1  2  1  0
  2  3  1  0
  3  4  1  0
  4  5  1  0
  5  6  1  0
  6  7  1  0
  8  7  1  1
  8  9  1  0
  9 10  1  0
 10 11  1  0
 11 12  1  0
 12 13  1  1
 13 14  1  0
 14 15  2  0
 14 16  1  0
 16 17  1  0
 17 18  1  0
 18 19  1  0
 19 20  1  0
 20 21  1  0
 20 22  1  0
 22 23  1  0
 23 24  1  0
 24 25  1  0
 25 26  1  0
 27 12  1  1
 12  8  1  0
 23 16  1  0
 27  8  1  0
 27  9  1  0
 27 10  1  0
  1 28  1  0
  1 29  1  0
  1 30  1  0
  2 31  1  0
  2 32  1  0
  3 33  1  0
  3 34  1  0
  4 35  1  0
  4 36  1  0
  5 37  1  0
  5 38  1  0
  6 39  1  0
  6 40  1  0
  7 41  1  0
  7 42  1  0
  9 43  1  6
 10 44  1  6
 11 45  1  0
 11 46  1  0
 13 47  1  0
 13 48  1  0
 16 49  1  6
 17 50  1  0
 17 51  1  0
 18 52  1  0
 18 53  1  0
 19 54  1  0
 19 55  1  0
 20 56  1  6
 21 57  1  0
 21 58  1  0
 21 59  1  0
 22 60  1  0
 22 61  1  0
 23 62  1  1
 24 63  1  0
 24 64  1  0
 25 65  1  0
 25 66  1  0
 26 67  1  0
 26 68  1  0
 26 69  1  0
M  END
$$$$
