
     RDKit          2D

 63 66  0  0  0  0  0  0  0  0999 V2000
   -6.2190    1.8470    0.0000 C   0  0  0  0  0  0  0  0  0  0  0  0
   -4.8095    1.3340    0.0000 C   0  0  0  0  0  0  0  0  0  0  0  0
   -3.6604    2.2981    0.0000 C   0  0  0  0  0  0  0  0  0  0  0  0
   -2.5113    3.2623    0.0000 C   0  0  0  0  0  0  0  0  0  0  0  0
   -1.3623    4.2265    0.0000 C   0  0  0  0  0  0  0  0  0  0  0  0
   -0.2132    5.1907    0.0000 C   0  0  0  0  0  0  0  0  0  0  0  0
   -2.3265    5.3756    0.0000 C   0  0  0  0  0  0  0  0  0  0  0  0
   -2.8395    6.7851    0.0000 C   0  0  0  0  0  0  0  0  0  0  0  0
   -1.3623    6.5246    0.0000 C   0  0  0  0  0  0  0  0  0  0  0  0
   -2.6962    1.1491    0.0000 C   0  0  0  0  0  0  0  0  0  0  0  0
   -1.7321    0.0000    0.0000 C   0  0  0  0  0  0  0  0  0  0  0  0
   -0.4330    0.7500    0.0000 C   0  0  0  0  0  0  0  0  0  0  0  0
    0.8660    0.0000    0.0000 C   0  0  0  0  0  0  0  0  0  0  0  0
   -0.4330   -0.7500    0.0000 C   0  0  0  0  0  0  0  0  0  0  0  0
   -0.4330   -2.2500    0.0000 C   0  0  0  0  0  0  0  0  0  0  0  0
   -0.4330   -3.7500    0.0000 C   0  0  0  0  0  0  0  0  0  0  0  0
    1.0670   -3.7500    0.0000 C   0  0  0  0  0  0  0  0  0  0  0  0
    1.0670   -5.2500    0.0000 C   0  0  0  0  0  0  0  0  0  0  0  0
    1.0670   -6.7500    0.0000 N   0  0  0  0  0  0  0  0  0  0  0  0
    2.3660   -7.5000    0.0000 C   0  0  0  0  0  0  0  0  0  0  0  0
    3.6651   -8.2500    0.0000 C   0  0  0  0  0  0  0  0  0  0  0  0
    4.9641   -9.0000    0.0000 C   0  0  0  0  0  0  0  0  0  0  0  0
    6.2631   -9.7500    0.0000 C   0  0  0  0  0  0  0  0  0  0  0  0
   -0.4330   -5.2500    0.0000 C   0  0  0  0  0  0  0  0  0  0  0  0
   -7.3681    0.8828    0.0000 H   0  0  0  0  0  0  0  0  0  0  0  0
   -6.4795    3.3242    0.0000 H   0  0  0  0  0  0  0  0  0  0  0  0
   -4.7310   -0.1640    0.0000 H   0  0  0  0  0  0  0  0  0  0  0  0
   -4.6246    3.4472    0.0000 H   0  0  0  0  0  0  0  0  0  0  0  0
   -3.3111    4.0081    0.0000 H   0  0  0  0  0  0  0  0  0  0  0  0
   -1.4143    2.2393    0.0000 H   0  0  0  0  0  0  0  0  0  0  0  0
   -0.2652    3.2035    0.0000 H   0  0  0  0  0  0  0  0  0  0  0  0
    0.7175    5.9717    0.0000 H   0  0  0  0  0  0  0  0  0  0  0  0
   -0.5626    5.9072    0.0000 H   0  0  0  0  0  0  0  0  0  0  0  0
    0.7510    4.0416    0.0000 H   0  0  0  0  0  0  0  0  0  0  0  0
   -3.3330    4.9483    0.0000 H   0  0  0  0  0  0  0  0  0  0  0  0
   -4.3167    6.5246    0.0000 H   0  0  0  0  0  0  0  0  0  0  0  0
   -2.8395    8.2851    0.0000 H   0  0  0  0  0  0  0  0  0  0  0  0
   -0.8493    7.9342    0.0000 H   0  0  0  0  0  0  0  0  0  0  0  0
   -0.4162    6.2534    0.0000 H   0  0  0  0  0  0  0  0  0  0  0  0
   -1.4382    1.9660    0.0000 H   0  0  0  0  0  0  0  0  0  0  0  0
   -3.7192    0.0520    0.0000 H   0  0  0  0  0  0  0  0  0  0  0  0
   -2.6962   -1.1491    0.0000 H   0  0  0  0  0  0  0  0  0  0  0  0
   -0.2502    2.2388    0.0000 H   0  0  0  0  0  0  0  0  0  0  0  0
    1.8302    1.1491    0.0000 H   0  0  0  0  0  0  0  0  0  0  0  0
    1.8302   -1.1491    0.0000 H   0  0  0  0  0  0  0  0  0  0  0  0
   -1.9330   -2.2500    0.0000 H   0  0  0  0  0  0  0  0  0  0  0  0
    1.0558   -2.0672    0.0000 H   0  0  0  0  0  0  0  0  0  0  0  0
   -1.9330   -3.7500    0.0000 H   0  0  0  0  0  0  0  0  0  0  0  0
    2.5670   -3.7500    0.0000 H   0  0  0  0  0  0  0  0  0  0  0  0
    1.2498   -2.2612    0.0000 H   0  0  0  0  0  0  0  0  0  0  0  0
    2.5670   -5.2500    0.0000 H   0  0  0  0  0  0  0  0  0  0  0  0
   -0.1309   -7.6528    0.0000 H   0  0  0  0  0  0  0  0  0  0  0  0
    3.1160   -6.2010    0.0000 H   0  0  0  0  0  0  0  0  0  0  0  0
    1.6160   -8.7990    0.0000 H   0  0  0  0  0  0  0  0  0  0  0  0
    4.4151   -6.9510    0.0000 H   0  0  0  0  0  0  0  0  0  0  0  0
    2.9151   -9.5490    0.0000 H   0  0  0  0  0  0  0  0  0  0  0  0
    4.2141  -10.2990    0.0000 H   0  0  0  0  0  0  0  0  0  0  0  0
    5.7141   -7.7010    0.0000 H   0  0  0  0  0  0  0  0  0  0  0  0
    7.5622  -10.5000    0.0000 H   0  0  0  0  0  0  0  0  0  0  0  0
    7.0131   -8.4510    0.0000 H   0  0  0  0  0  0  0  0  0  0  0  0
    5.5131  -11.0490    0.0000 H   0  0  0  0  0  0  0  0  0  0  0  0
   -1.9330   -5.2500    0.0000 H   0  0  0  0  0  0  0  0  0  0  0  0
   -0.6159   -6.7388    0.0000 H   0  0  0  0  0  0  0  0  0  0  0  0
  1  2  2  3
  2  3  1  0
  3  4  1  0
  4  5  1  0
  5  6  1  0
  5  7  1  0
  7  8  1  0
  8  9  1  0
  3 10  1  0
 10 11  1  0
 11 12  1  0
 12 13  1  0
 13 14  1  0
 14 15  1  0
 15 16  1  0
 16 17  1  0
 17 18  1  0
 18 19  1  0
 19 20  1  0
 20 21  1  0
 21 22  1  0
 22 23  1  0
 18 24  1  0
  9  7  1  0
 14 11  1  0
 24 16  1  0
 14 12  1  0
  1 25  1  0
  1 26  1  0
  2 27  1  0
  3 28  1  0
  4 29  1  0
  4 30  1  0
  5 31  1  0
  6 32  1  0
  6 33  1  0
  6 34  1  0
  7 35  1  0
  8 36  1  0
  8 37  1  0
  9 38  1  0
  9 39  1  0
 10 40  1  0
 10 41  1  0
 11 42  1  0
 12 43  1  0
 13 44  1  0
 13 45  1  0
 15 46  1  0
 15 47  1  0
 16 48  1  0
 17 49  1  0
 17 50  1  0
 18 51  1  0
 19 52  1  0
 20 53  1  0
 20 54  1  0
 21 55  1  0
 21 56  1  0
 22 57  1  0
 22 58  1  0
 23 59  1  0
 23 60  1  0
 23 61  1  0
 24 62  1  0
 24 63  1  0
M  END
$$$$
