
     RDKit          2D

 65 67  0  0  0  0  0  0  0  0999 V2000
    7.7733    3.6857    0.0000 C   0  0  0  0  0  0  0  0  0  0  0  0
    7.5497    5.1690    0.0000 C   0  0  0  0  0  0  0  0  0  0  0  0
    6.1534    5.7170    0.0000 C   0  0  0  0  0  0  0  0  0  0  0  0
    4.9806    4.7817    0.0000 C   0  0  0  0  0  0  0  0  0  0  0  0
    3.8079    3.8465    0.0000 C   0  0  0  0  0  0  0  0  0  0  0  0
    2.6351    2.9113    0.0000 C   0  0  0  0  0  0  0  0  0  0  0  0
    1.4624    1.9760    0.0000 C   0  0  0  0  0  0  0  0  0  0  0  0
    2.6351    1.0408    0.0000 C   0  0  0  0  0  0  0  0  0  0  0  0
    4.0975    0.7070    0.0000 O   0  0  0  0  0  0  0  0  0  0  0  0
    2.6351   -0.4592    0.0000 C   0  0  0  0  0  0  0  0  0  0  0  0
    1.4624   -1.3944    0.0000 C   0  0  0  0  0  0  0  0  0  0  0  0
   -0.0000   -1.0607    0.0000 C   0  0  0  0  0  0  0  0  0  0  0  0
    1.0607    0.0000    0.0000 C   0  0  0  0  0  0  0  0  0  0  0  0
    0.0000    1.0607    0.0000 C   0  0  0  0  0  0  0  0  0  0  0  0
   -1.0607    0.0000    0.0000 C   0  0  0  0  0  0  0  0  0  0  0  0
   -2.1213   -1.0607    0.0000 C   0  0  0  0  0  0  0  0  0  0  0  0
   -3.1820   -2.1213    0.0000 C   0  0  0  0  0  0  0  0  0  0  0  0
   -1.0607   -2.1213    0.0000 C   0  0  0  0  0  0  0  0  0  0  0  0
    4.0454    5.9545    0.0000 C   0  0  0  0  0  0  0  0  0  0  0  0
    3.1102    7.1272    0.0000 C   0  0  0  0  0  0  0  0  0  0  0  0
    2.1749    8.3000    0.0000 C   0  0  0  0  0  0  0  0  0  0  0  0
    5.2181    6.8897    0.0000 C   0  0  0  0  0  0  0  0  0  0  0  0
    6.3909    7.8249    0.0000 C   0  0  0  0  0  0  0  0  0  0  0  0
    7.5636    8.7602    0.0000 C   0  0  0  0  0  0  0  0  0  0  0  0
    8.7364    9.6954    0.0000 C   0  0  0  0  0  0  0  0  0  0  0  0
    7.9968    2.2025    0.0000 H   0  0  0  0  0  0  0  0  0  0  0  0
    9.2565    3.9093    0.0000 H   0  0  0  0  0  0  0  0  0  0  0  0
    6.6029    3.3595    0.0000 H   0  0  0  0  0  0  0  0  0  0  0  0
    8.7224    6.1042    0.0000 H   0  0  0  0  0  0  0  0  0  0  0  0
    6.6026    6.9900    0.0000 H   0  0  0  0  0  0  0  0  0  0  0  0
    5.6167    3.7465    0.0000 H   0  0  0  0  0  0  0  0  0  0  0  0
    4.7431    2.6738    0.0000 H   0  0  0  0  0  0  0  0  0  0  0  0
    2.7367    4.8965    0.0000 H   0  0  0  0  0  0  0  0  0  0  0  0
    3.2044    2.3532    0.0000 H   0  0  0  0  0  0  0  0  0  0  0  0
    1.6999    4.0840    0.0000 H   0  0  0  0  0  0  0  0  0  0  0  0
    0.8116    3.3275    0.0000 H   0  0  0  0  0  0  0  0  0  0  0  0
    3.0660    1.7115    0.0000 H   0  0  0  0  0  0  0  0  0  0  0  0
    5.1178    1.8066    0.0000 H   0  0  0  0  0  0  0  0  0  0  0  0
    3.9866   -1.1100    0.0000 H   0  0  0  0  0  0  0  0  0  0  0  0
    1.7962   -2.8568    0.0000 H   0  0  0  0  0  0  0  0  0  0  0  0
    2.3465    0.7725    0.0000 H   0  0  0  0  0  0  0  0  0  0  0  0
    2.4952   -0.4384    0.0000 H   0  0  0  0  0  0  0  0  0  0  0  0
    0.0000    2.5607    0.0000 H   0  0  0  0  0  0  0  0  0  0  0  0
   -2.1213    1.0607    0.0000 H   0  0  0  0  0  0  0  0  0  0  0  0
   -3.1820    0.0000    0.0000 H   0  0  0  0  0  0  0  0  0  0  0  0
   -4.2426   -3.1820    0.0000 H   0  0  0  0  0  0  0  0  0  0  0  0
   -4.2426   -1.0607    0.0000 H   0  0  0  0  0  0  0  0  0  0  0  0
   -2.2585   -3.3034    0.0000 H   0  0  0  0  0  0  0  0  0  0  0  0
   -0.0000   -3.1820    0.0000 H   0  0  0  0  0  0  0  0  0  0  0  0
   -1.9841   -3.3034    0.0000 H   0  0  0  0  0  0  0  0  0  0  0  0
    2.7674    5.1692    0.0000 H   0  0  0  0  0  0  0  0  0  0  0  0
    4.1602    8.1984    0.0000 H   0  0  0  0  0  0  0  0  0  0  0  0
    1.9374    6.1920    0.0000 H   0  0  0  0  0  0  0  0  0  0  0  0
    1.2397    9.4727    0.0000 H   0  0  0  0  0  0  0  0  0  0  0  0
    1.0022    7.3647    0.0000 H   0  0  0  0  0  0  0  0  0  0  0  0
    3.3477    9.2352    0.0000 H   0  0  0  0  0  0  0  0  0  0  0  0
    4.4328    8.1677    0.0000 H   0  0  0  0  0  0  0  0  0  0  0  0
    6.4094    5.9781    0.0000 H   0  0  0  0  0  0  0  0  0  0  0  0
    7.3261    6.6522    0.0000 H   0  0  0  0  0  0  0  0  0  0  0  0
    5.4557    8.9977    0.0000 H   0  0  0  0  0  0  0  0  0  0  0  0
    6.6284    9.9329    0.0000 H   0  0  0  0  0  0  0  0  0  0  0  0
    8.4989    7.5874    0.0000 H   0  0  0  0  0  0  0  0  0  0  0  0
    9.9091   10.6307    0.0000 H   0  0  0  0  0  0  0  0  0  0  0  0
    9.6716    8.5227    0.0000 H   0  0  0  0  0  0  0  0  0  0  0  0
    7.8012   10.8682    0.0000 H   0  0  0  0  0  0  0  0  0  0  0  0
  1  2  1  0
  2  3  2  3
  3  4  1  0
  4  5  1  0
  5  6  1  0
  6  7  1  0
  7  8  1  0
  8  9  1  0
  8 10  1  0
 10 11  2  0
 11 12  1  0
 12 13  1  0
 13 14  1  0
 14 15  1  0
 15 16  1  0
 16 17  1  0
 16 18  1  0
  4 19  1  0
 19 20  1  0
 20 21  1  0
 19 22  1  0
 22 23  1  0
 23 24  1  0
 24 25  1  0
 14  7  1  0
 15 12  1  0
 12 18  1  6
  1 26  1  0
  1 27  1  0
  1 28  1  0
  2 29  1  0
  3 30  1  0
  4 31  1  1
  5 32  1  0
  5 33  1  0
  6 34  1  0
  6 35  1  0
  7 36  1  6
  8 37  1  1
  9 38  1  0
 10 39  1  0
 11 40  1  0
 13 41  1  0
 13 42  1  0
 14 43  1  6
 15 44  1  1
 16 45  1  6
 17 46  1  0
 17 47  1  0
 17 48  1  0
 18 49  1  0
 18 50  1  0
 19 51  1  6
 20 52  1  0
 20 53  1  0
 21 54  1  0
 21 55  1  0
 21 56  1  0
 22 57  1  0
 22 58  1  0
 23 59  1  0
 23 60  1  0
 24 61  1  0
 24 62  1  0
 25 63  1  0
 25 64  1  0
 25 65  1  0
M  END
$$$$
