
     RDKit          2D

 43 51  0  0  0  0  0  0  0  0999 V2000
    0.3170    2.0490    0.0000 C   0  0  0  0  0  0  0  0  0  0  0  0
   -0.4330    0.7500    0.0000 C   0  0  0  0  0  0  0  0  0  0  0  0
    0.8660    0.0000    0.0000 C   0  0  0  0  0  0  0  0  0  0  0  0
   -0.4330   -0.7500    0.0000 C   0  0  0  0  0  0  0  0  0  0  0  0
    0.3170   -2.0490    0.0000 C   0  0  0  0  0  0  0  0  0  0  0  0
   -0.9821   -2.7990    0.0000 C   0  0  0  0  0  0  0  0  0  0  0  0
   -2.2811   -3.5490    0.0000 C   0  0  0  0  0  0  0  0  0  0  0  0
   -3.2453   -4.6981    0.0000 C   0  0  0  0  0  0  0  0  0  0  0  0
   -1.7681   -4.9586    0.0000 C   0  0  0  0  0  0  0  0  0  0  0  0
   -1.7681   -6.4586    0.0000 C   0  0  0  0  0  0  0  0  0  0  0  0
   -0.2681   -6.4586    0.0000 C   0  0  0  0  0  0  0  0  0  0  0  0
   -0.2681   -7.9586    0.0000 N   0  0  0  0  0  0  0  0  0  0  0  0
   -1.7681   -7.9586    0.0000 C   0  0  0  0  0  0  0  0  0  0  0  0
   -1.7321   -1.5000    0.0000 C   0  0  0  0  0  0  0  0  0  0  0  0
   -3.0311   -2.2500    0.0000 C   0  0  0  0  0  0  0  0  0  0  0  0
   -4.3301   -1.5000    0.0000 C   0  0  0  0  0  0  0  0  0  0  0  0
   -3.0311    2.2500    0.0000 C   0  0  0  0  0  0  0  0  0  0  0  0
   -1.7321    1.5000    0.0000 C   0  0  0  0  0  0  0  0  0  0  0  0
   -3.0311    0.7500    0.0000 C   0  0  0  0  0  0  0  0  0  0  0  0
   -3.0311   -0.7500    0.0000 C   0  0  0  0  0  0  0  0  0  0  0  0
    1.0670    3.3481    0.0000 H   0  0  0  0  0  0  0  0  0  0  0  0
   -0.8809    2.9518    0.0000 H   0  0  0  0  0  0  0  0  0  0  0  0
    1.3236    1.6218    0.0000 H   0  0  0  0  0  0  0  0  0  0  0  0
    1.6658    0.7457    0.0000 H   0  0  0  0  0  0  0  0  0  0  0  0
    1.6658   -0.7457    0.0000 H   0  0  0  0  0  0  0  0  0  0  0  0
    1.0670   -3.3481    0.0000 H   0  0  0  0  0  0  0  0  0  0  0  0
    1.3236   -1.6218    0.0000 H   0  0  0  0  0  0  0  0  0  0  0  0
    0.0600   -3.8780    0.0000 H   0  0  0  0  0  0  0  0  0  0  0  0
   -2.9260   -3.0805    0.0000 H   0  0  0  0  0  0  0  0  0  0  0  0
   -4.5443   -3.9481    0.0000 H   0  0  0  0  0  0  0  0  0  0  0  0
   -3.9263   -6.0346    0.0000 H   0  0  0  0  0  0  0  0  0  0  0  0
   -0.2908   -4.6981    0.0000 H   0  0  0  0  0  0  0  0  0  0  0  0
   -3.2569   -6.6414    0.0000 H   0  0  0  0  0  0  0  0  0  0  0  0
    1.2319   -6.4586    0.0000 H   0  0  0  0  0  0  0  0  0  0  0  0
    0.0949   -5.0032    0.0000 H   0  0  0  0  0  0  0  0  0  0  0  0
    0.7926   -9.0192    0.0000 H   0  0  0  0  0  0  0  0  0  0  0  0
   -3.2681   -7.9586    0.0000 H   0  0  0  0  0  0  0  0  0  0  0  0
   -1.7681   -9.4586    0.0000 H   0  0  0  0  0  0  0  0  0  0  0  0
   -3.3941   -3.7054    0.0000 H   0  0  0  0  0  0  0  0  0  0  0  0
   -5.8301   -1.5000    0.0000 H   0  0  0  0  0  0  0  0  0  0  0  0
   -3.7811    3.5490    0.0000 H   0  0  0  0  0  0  0  0  0  0  0  0
   -1.1460    2.8808    0.0000 H   0  0  0  0  0  0  0  0  0  0  0  0
   -1.5757    1.1130    0.0000 H   0  0  0  0  0  0  0  0  0  0  0  0
  2  1  1  6
  2  3  1  0
  4  3  1  1
  4  5  1  0
  5  6  1  0
  6  7  1  0
  7  8  1  0
  8  9  1  0
  9 10  1  0
 10 11  1  0
 11 12  1  0
 12 13  1  0
  6 14  1  0
 14 15  1  0
 15 16  1  0
 16 17  1  0
 17 18  1  0
 18 19  1  0
 19 20  1  0
  4  2  1  0
  9  7  1  0
 13 10  1  0
 20 14  1  6
 18  2  1  0
 14  4  1  6
 20 15  1  0
 20 16  1  0
 19 17  1  0
  1 21  1  0
  1 22  1  0
  1 23  1  0
  3 24  1  0
  3 25  1  0
  5 26  1  0
  5 27  1  0
  6 28  1  6
  7 29  1  6
  8 30  1  0
  8 31  1  0
  9 32  1  1
 10 33  1  0
 11 34  1  0
 11 35  1  0
 12 36  1  0
 13 37  1  0
 13 38  1  0
 15 39  1  1
 16 40  1  1
 17 41  1  1
 18 42  1  1
 19 43  1  1
M  END
$$$$
