
     RDKit          2D

113118  0  0  0  0  0  0  0  0999 V2000
   -7.2189    7.5412    0.0000 C   0  0  0  0  0  0  0  0  0  0  0  0
   -6.1193    8.5614    0.0000 C   0  0  0  0  0  0  0  0  0  0  0  0
   -6.2984   10.0507    0.0000 C   0  0  0  0  0  0  0  0  0  0  0  0
   -6.7833   11.4702    0.0000 C   0  0  0  0  0  0  0  0  0  0  0  0
   -4.9374   10.6813    0.0000 C   0  0  0  0  0  0  0  0  0  0  0  0
   -3.9171    9.5817    0.0000 C   0  0  0  0  0  0  0  0  0  0  0  0
   -2.6906    8.7183    0.0000 C   0  0  0  0  0  0  0  0  0  0  0  0
   -1.4640    7.8548    0.0000 C   0  0  0  0  0  0  0  0  0  0  0  0
   -4.6476    8.2716    0.0000 C   0  0  0  0  0  0  0  0  0  0  0  0
   -5.0898    6.8382    0.0000 C   0  0  0  0  0  0  0  0  0  0  0  0
   -4.0695    5.7386    0.0000 C   0  0  0  0  0  0  0  0  0  0  0  0
   -4.5116    4.3053    0.0000 O   0  0  0  0  0  0  0  0  0  0  0  0
   -5.9740    3.9715    0.0000 O   0  0  0  0  0  0  0  0  0  0  0  0
   -6.4162    2.5381    0.0000 C   0  0  0  0  0  0  0  0  0  0  0  0
   -6.8583    1.1048    0.0000 N   0  0  0  0  0  0  0  0  0  0  0  0
   -8.3207    0.7710    0.0000 C   0  0  0  0  0  0  0  0  0  0  0  0
   -9.7831    0.4372    0.0000 N   0  0  0  0  0  0  0  0  0  0  0  0
  -10.8033    1.5368    0.0000 C   0  0  0  0  0  0  0  0  0  0  0  0
  -11.5727    2.8245    0.0000 C   0  0  0  0  0  0  0  0  0  0  0  0
  -13.0351    2.4907    0.0000 C   0  0  0  0  0  0  0  0  0  0  0  0
  -13.2142    3.9799    0.0000 C   0  0  0  0  0  0  0  0  0  0  0  0
  -14.5349    2.4682    0.0000 C   0  0  0  0  0  0  0  0  0  0  0  0
  -13.1695    0.9967    0.0000 C   0  0  0  0  0  0  0  0  0  0  0  0
  -11.7902    0.4072    0.0000 C   0  0  0  0  0  0  0  0  0  0  0  0
  -12.5207   -0.9029    0.0000 C   0  0  0  0  0  0  0  0  0  0  0  0
   -2.6071    6.0724    0.0000 C   0  0  0  0  0  0  0  0  0  0  0  0
   -1.1447    6.4062    0.0000 C   0  0  0  0  0  0  0  0  0  0  0  0
   -2.2733    4.6100    0.0000 C   0  0  0  0  0  0  0  0  0  0  0  0
   -1.9395    3.1476    0.0000 C   0  0  0  0  0  0  0  0  0  0  0  0
   -3.4019    2.8138    0.0000 C   0  0  0  0  0  0  0  0  0  0  0  0
   -3.0682    1.3515    0.0000 C   0  0  0  0  0  0  0  0  0  0  0  0
   -1.6058    1.6852    0.0000 C   0  0  0  0  0  0  0  0  0  0  0  0
   -0.4330    0.7500    0.0000 C   0  0  0  0  0  0  0  0  0  0  0  0
    0.8660    0.0000    0.0000 C   0  0  0  0  0  0  0  0  0  0  0  0
    1.8302    1.1491    0.0000 C   0  0  0  0  0  0  0  0  0  0  0  0
   -0.4330   -0.7500    0.0000 N   0  0  0  0  0  0  0  0  0  0  0  0
   -1.6058   -1.6852    0.0000 C   0  0  0  0  0  0  0  0  0  0  0  0
   -0.4330   -2.6205    0.0000 N   0  0  0  0  0  0  0  0  0  0  0  0
   -3.0682   -1.3515    0.0000 C   0  0  0  0  0  0  0  0  0  0  0  0
   -3.7190    0.0000    0.0000 C   0  0  0  0  0  0  0  0  0  0  0  0
   -4.8917   -0.9352    0.0000 C   0  0  0  0  0  0  0  0  0  0  0  0
   -4.1743   -2.2526    0.0000 C   0  0  0  0  0  0  0  0  0  0  0  0
   -3.4570   -3.5699    0.0000 C   0  0  0  0  0  0  0  0  0  0  0  0
   -6.3136   -1.4130    0.0000 C   0  0  0  0  0  0  0  0  0  0  0  0
   -6.0164    0.0573    0.0000 C   0  0  0  0  0  0  0  0  0  0  0  0
   -8.6523    7.9833    0.0000 H   0  0  0  0  0  0  0  0  0  0  0  0
   -7.0659    6.0490    0.0000 H   0  0  0  0  0  0  0  0  0  0  0  0
   -7.7608    9.7169    0.0000 H   0  0  0  0  0  0  0  0  0  0  0  0
   -7.2681   12.8897    0.0000 H   0  0  0  0  0  0  0  0  0  0  0  0
   -8.2027   10.9854    0.0000 H   0  0  0  0  0  0  0  0  0  0  0  0
   -6.0659   11.8179    0.0000 H   0  0  0  0  0  0  0  0  0  0  0  0
   -3.7372   11.5810    0.0000 H   0  0  0  0  0  0  0  0  0  0  0  0
   -5.2598   11.4103    0.0000 H   0  0  0  0  0  0  0  0  0  0  0  0
   -2.9302   10.7113    0.0000 H   0  0  0  0  0  0  0  0  0  0  0  0
   -1.8271    9.9448    0.0000 H   0  0  0  0  0  0  0  0  0  0  0  0
   -3.5540    7.4917    0.0000 H   0  0  0  0  0  0  0  0  0  0  0  0
   -0.1413    7.1474    0.0000 H   0  0  0  0  0  0  0  0  0  0  0  0
   -0.6006    9.0814    0.0000 H   0  0  0  0  0  0  0  0  0  0  0  0
   -2.0049    6.4558    0.0000 H   0  0  0  0  0  0  0  0  0  0  0  0
   -3.2683    7.6820    0.0000 H   0  0  0  0  0  0  0  0  0  0  0  0
   -6.5006    6.3287    0.0000 H   0  0  0  0  0  0  0  0  0  0  0  0
   -5.0474    1.9246    0.0000 H   0  0  0  0  0  0  0  0  0  0  0  0
   -7.8495    2.9803    0.0000 H   0  0  0  0  0  0  0  0  0  0  0  0
   -6.1344   -0.2090    0.0000 H   0  0  0  0  0  0  0  0  0  0  0  0
   -8.1676   -0.7212    0.0000 H   0  0  0  0  0  0  0  0  0  0  0  0
   -8.6545    2.2334    0.0000 H   0  0  0  0  0  0  0  0  0  0  0  0
  -10.0472   -1.0394    0.0000 H   0  0  0  0  0  0  0  0  0  0  0  0
   -9.6031    2.4365    0.0000 H   0  0  0  0  0  0  0  0  0  0  0  0
  -10.2116    3.4550    0.0000 H   0  0  0  0  0  0  0  0  0  0  0  0
  -11.8808    4.2925    0.0000 H   0  0  0  0  0  0  0  0  0  0  0  0
  -13.3933    5.4692    0.0000 H   0  0  0  0  0  0  0  0  0  0  0  0
  -14.7142    3.9837    0.0000 H   0  0  0  0  0  0  0  0  0  0  0  0
  -11.7578    4.3392    0.0000 H   0  0  0  0  0  0  0  0  0  0  0  0
  -16.0347    2.4458    0.0000 H   0  0  0  0  0  0  0  0  0  0  0  0
  -14.7400    3.9542    0.0000 H   0  0  0  0  0  0  0  0  0  0  0  0
  -14.6955    0.9769    0.0000 H   0  0  0  0  0  0  0  0  0  0  0  0
  -14.6656    1.1050    0.0000 H   0  0  0  0  0  0  0  0  0  0  0  0
  -13.7831   -0.3721    0.0000 H   0  0  0  0  0  0  0  0  0  0  0  0
  -10.6781   -0.5993    0.0000 H   0  0  0  0  0  0  0  0  0  0  0  0
  -13.2512   -2.2130    0.0000 H   0  0  0  0  0  0  0  0  0  0  0  0
  -11.2106   -1.6334    0.0000 H   0  0  0  0  0  0  0  0  0  0  0  0
  -13.9101   -0.3376    0.0000 H   0  0  0  0  0  0  0  0  0  0  0  0
   -2.9409    7.5348    0.0000 H   0  0  0  0  0  0  0  0  0  0  0  0
    0.3475    6.5592    0.0000 H   0  0  0  0  0  0  0  0  0  0  0  0
   -1.1147    7.9059    0.0000 H   0  0  0  0  0  0  0  0  0  0  0  0
   -0.6352    4.9954    0.0000 H   0  0  0  0  0  0  0  0  0  0  0  0
   -3.6841    4.1005    0.0000 H   0  0  0  0  0  0  0  0  0  0  0  0
   -0.7811    4.7631    0.0000 H   0  0  0  0  0  0  0  0  0  0  0  0
   -0.4771    3.4814    0.0000 H   0  0  0  0  0  0  0  0  0  0  0  0
   -4.8127    2.3043    0.0000 H   0  0  0  0  0  0  0  0  0  0  0  0
   -4.2377    4.0594    0.0000 H   0  0  0  0  0  0  0  0  0  0  0  0
   -4.5271    1.6998    0.0000 H   0  0  0  0  0  0  0  0  0  0  0  0
   -0.4424    2.6322    0.0000 H   0  0  0  0  0  0  0  0  0  0  0  0
    0.4120    1.9894    0.0000 H   0  0  0  0  0  0  0  0  0  0  0  0
    1.8302   -1.1491    0.0000 H   0  0  0  0  0  0  0  0  0  0  0  0
    2.7944    2.2981    0.0000 H   0  0  0  0  0  0  0  0  0  0  0  0
    2.9793    0.1849    0.0000 H   0  0  0  0  0  0  0  0  0  0  0  0
    0.8072    2.2461    0.0000 H   0  0  0  0  0  0  0  0  0  0  0  0
   -1.9102   -3.1540    0.0000 H   0  0  0  0  0  0  0  0  0  0  0  0
   -0.6566   -4.1037    0.0000 H   0  0  0  0  0  0  0  0  0  0  0  0
    0.9633   -2.0725    0.0000 H   0  0  0  0  0  0  0  0  0  0  0  0
   -3.2510   -2.8403    0.0000 H   0  0  0  0  0  0  0  0  0  0  0  0
   -4.4063   -2.0292    0.0000 H   0  0  0  0  0  0  0  0  0  0  0  0
   -4.8917    0.9352    0.0000 H   0  0  0  0  0  0  0  0  0  0  0  0
   -5.3944   -3.1252    0.0000 H   0  0  0  0  0  0  0  0  0  0  0  0
   -2.7226   -1.8753    0.0000 H   0  0  0  0  0  0  0  0  0  0  0  0
   -2.7396   -4.8872    0.0000 H   0  0  0  0  0  0  0  0  0  0  0  0
   -4.7743   -4.2873    0.0000 H   0  0  0  0  0  0  0  0  0  0  0  0
   -2.0620   -3.0184    0.0000 H   0  0  0  0  0  0  0  0  0  0  0  0
   -6.2725   -2.9124    0.0000 H   0  0  0  0  0  0  0  0  0  0  0  0
   -7.8065   -1.5586    0.0000 H   0  0  0  0  0  0  0  0  0  0  0  0
   -7.5038    0.2511    0.0000 H   0  0  0  0  0  0  0  0  0  0  0  0
   -5.3961    1.4230    0.0000 H   0  0  0  0  0  0  0  0  0  0  0  0
  1  2  2  3
  2  3  1  0
  3  4  1  0
  3  5  1  0
  5  6  1  0
  6  7  1  0
  7  8  1  0
  6  9  1  0
  9 10  1  0
 10 11  2  3
 11 12  1  0
 12 13  1  0
 13 14  1  0
 14 15  1  0
 15 16  1  0
 16 17  1  0
 17 18  1  0
 18 19  1  0
 19 20  1  0
 20 21  1  0
 20 22  1  0
 20 23  1  0
 23 24  1  0
 24 25  1  0
 11 26  1  0
 26 27  1  0
 26 28  1  0
 28 29  1  0
 29 30  1  0
 30 31  1  0
 31 32  1  0
 32 33  1  0
 33 34  1  0
 34 35  1  0
 34 36  1  0
 36 37  1  0
 37 38  1  0
 37 39  1  0
 39 40  1  0
 40 41  1  0
 41 42  1  0
 42 43  1  0
 41 44  1  0
 44 45  1  0
  9  2  1  0
 24 18  1  0
 32 29  1  0
 36 33  1  0
 45 41  1  0
 40 31  1  0
  1 46  1  0
  1 47  1  0
  3 48  1  6
  4 49  1  0
  4 50  1  0
  4 51  1  0
  5 52  1  0
  5 53  1  0
  6 54  1  6
  7 55  1  0
  7 56  1  0
  8 57  1  0
  8 58  1  0
  8 59  1  0
  9 60  1  1
 10 61  1  0
 14 62  1  0
 14 63  1  0
 15 64  1  0
 16 65  1  0
 16 66  1  0
 17 67  1  0
 18 68  1  6
 19 69  1  0
 19 70  1  0
 21 71  1  0
 21 72  1  0
 21 73  1  0
 22 74  1  0
 22 75  1  0
 22 76  1  0
 23 77  1  0
 23 78  1  0
 24 79  1  1
 25 80  1  0
 25 81  1  0
 25 82  1  0
 26 83  1  1
 27 84  1  0
 27 85  1  0
 27 86  1  0
 28 87  1  0
 28 88  1  0
 29 89  1  1
 30 90  1  0
 30 91  1  0
 31 92  1  6
 32 93  1  1
 33 94  1  1
 34 95  1  6
 35 96  1  0
 35 97  1  0
 35 98  1  0
 37 99  1  6
 38100  1  0
 38101  1  0
 39102  1  0
 39103  1  0
 40104  1  1
 42105  1  0
 42106  1  0
 43107  1  0
 43108  1  0
 43109  1  0
 44110  1  0
 44111  1  0
 45112  1  0
 45113  1  0
M  END
$$$$
