
     RDKit          3D

 16 16  0  0  0  0  0  0  0  0999 V2000
   26.5237  -30.8942  -15.1650 C   0  0  0  0  0  0  0  0  0  0  0  0
   26.1713  -32.2464  -15.2500 O   0  0  0  0  0  0  0  0  0  0  0  0
   27.0742  -30.3494  -16.1582 O   0  0  0  0  0  0  0  0  0  0  0  0
   25.5537  -32.9715  -14.1889 C   0  0  0  0  0  0  0  0  0  0  0  0
   25.3382  -34.3076  -14.5904 O   0  0  0  0  0  0  0  0  0  0  0  0
   26.5620  -35.9119  -13.2664 C   0  0  0  0  0  0  0  0  0  0  0  0
   27.8779  -36.7092  -13.1067 C   0  0  0  0  0  0  0  0  0  0  0  0
   26.5414  -35.0518  -14.5358 C   0  0  0  0  0  0  0  0  0  0  0  0
   26.2929  -30.0882  -13.9205 C   0  0  0  0  0  0  0  0  0  0  0  0
   28.3712  -36.6308  -10.7144 O   0  0  0  0  0  0  0  0  0  0  0  0
   28.1674  -37.8003  -14.1693 C   0  0  0  0  0  0  0  0  0  0  0  0
   28.7009  -37.2455  -15.3507 O   0  0  0  0  0  0  0  0  0  0  0  0
   29.1939  -38.7110  -13.4717 C   0  0  0  0  0  0  0  0  0  0  0  0
   28.8663  -38.6633  -11.9791 C   0  0  0  0  0  0  0  0  0  0  0  0
   27.9361  -37.4584  -11.7660 C   0  0  0  0  0  0  0  0  0  0  0  0
   26.9192  -38.6309  -14.5446 C   0  0  0  0  0  0  0  0  0  0  0  0
  2  1  1  0
  3  1  2  0
  4  2  1  0
  5  4  1  0
  7  6  1  0
  8  5  1  0
  8  6  1  0
  9  1  1  0
 11  7  1  0
 12 11  1  0
 13 11  1  0
 14 13  1  0
 15  7  1  0
 15 10  1  0
 15 14  1  0
 16 11  1  0
M  END
$$$$
