
     RDKit          2D

103113  0  0  0  0  0  0  0  0999 V2000
    2.1213    1.0607    0.0000 C   0  0  0  0  0  0  0  0  0  0  0  0
    1.0607    0.0000    0.0000 C   0  0  0  0  0  0  0  0  0  0  0  0
   -0.0000   -1.0607    0.0000 C   0  0  0  0  0  0  0  0  0  0  0  0
   -1.0607    0.0000    0.0000 C   0  0  0  0  0  0  0  0  0  0  0  0
   -2.5512    0.1679    0.0000 C   0  0  0  0  0  0  0  0  0  0  0  0
   -2.3833   -1.3226    0.0000 C   0  0  0  0  0  0  0  0  0  0  0  0
   -2.2153   -2.8132    0.0000 C   0  0  0  0  0  0  0  0  0  0  0  0
   -3.7059   -2.9811    0.0000 C   0  0  0  0  0  0  0  0  0  0  0  0
   -3.5380   -4.4717    0.0000 C   0  0  0  0  0  0  0  0  0  0  0  0
   -3.3700   -5.9623    0.0000 O   0  0  0  0  0  0  0  0  0  0  0  0
   -2.0474   -4.3038    0.0000 C   0  0  0  0  0  0  0  0  0  0  0  0
   -0.5568   -4.1358    0.0000 C   0  0  0  0  0  0  0  0  0  0  0  0
    0.9337   -3.9679    0.0000 C   0  0  0  0  0  0  0  0  0  0  0  0
    2.4243   -3.7999    0.0000 C   0  0  0  0  0  0  0  0  0  0  0  0
    3.9149   -3.6320    0.0000 C   0  0  0  0  0  0  0  0  0  0  0  0
    5.4055   -3.4640    0.0000 C   0  0  0  0  0  0  0  0  0  0  0  0
    6.0053   -2.0892    0.0000 C   0  0  0  0  0  0  0  0  0  0  0  0
    6.8960   -3.2961    0.0000 C   0  0  0  0  0  0  0  0  0  0  0  0
    6.2962   -4.6709    0.0000 C   0  0  0  0  0  0  0  0  0  0  0  0
    7.7868   -4.5030    0.0000 N   0  0  0  0  0  0  0  0  0  0  0  0
    9.1616   -5.1028    0.0000 C   0  0  0  0  0  0  0  0  0  0  0  0
    9.7614   -3.7280    0.0000 N   0  0  0  0  0  0  0  0  0  0  0  0
   11.1363   -4.3278    0.0000 C   0  0  0  0  0  0  0  0  0  0  0  0
   12.5111   -4.9276    0.0000 C   0  0  0  0  0  0  0  0  0  0  0  0
   13.1110   -3.5528    0.0000 C   0  0  0  0  0  0  0  0  0  0  0  0
   14.4858   -4.1526    0.0000 C   0  0  0  0  0  0  0  0  0  0  0  0
   13.8860   -5.5275    0.0000 C   0  0  0  0  0  0  0  0  0  0  0  0
   13.2861   -6.9023    0.0000 C   0  0  0  0  0  0  0  0  0  0  0  0
   12.6863   -8.2772    0.0000 C   0  0  0  0  0  0  0  0  0  0  0  0
   13.8590   -9.2124    0.0000 C   0  0  0  0  0  0  0  0  0  0  0  0
   14.4070  -10.6087    0.0000 C   0  0  0  0  0  0  0  0  0  0  0  0
   12.9238  -10.3852    0.0000 C   0  0  0  0  0  0  0  0  0  0  0  0
   12.3240  -11.7600    0.0000 N   0  0  0  0  0  0  0  0  0  0  0  0
   11.7511   -9.4499    0.0000 C   0  0  0  0  0  0  0  0  0  0  0  0
   11.2030   -8.0536    0.0000 C   0  0  0  0  0  0  0  0  0  0  0  0
    9.7328   -8.3508    0.0000 C   0  0  0  0  0  0  0  0  0  0  0  0
   11.1656   -6.5541    0.0000 O   0  0  0  0  0  0  0  0  0  0  0  0
   10.5364   -5.7027    0.0000 C   0  0  0  0  0  0  0  0  0  0  0  0
    9.9366   -7.0775    0.0000 O   0  0  0  0  0  0  0  0  0  0  0  0
   -3.3493    1.4380    0.0000 C   0  0  0  0  0  0  0  0  0  0  0  0
   -2.8539    2.8539    0.0000 C   0  0  0  0  0  0  0  0  0  0  0  0
   -1.4380    3.3493    0.0000 C   0  0  0  0  0  0  0  0  0  0  0  0
   -0.1679    2.5512    0.0000 C   0  0  0  0  0  0  0  0  0  0  0  0
    0.0000    1.0607    0.0000 C   0  0  0  0  0  0  0  0  0  0  0  0
    3.1820    2.1213    0.0000 H   0  0  0  0  0  0  0  0  0  0  0  0
    3.1820    0.0000    0.0000 H   0  0  0  0  0  0  0  0  0  0  0  0
    1.3488    2.3465    0.0000 H   0  0  0  0  0  0  0  0  0  0  0  0
    2.1213   -1.0607    0.0000 H   0  0  0  0  0  0  0  0  0  0  0  0
    1.1820   -1.9841    0.0000 H   0  0  0  0  0  0  0  0  0  0  0  0
   -0.5637   -1.6243    0.0000 H   0  0  0  0  0  0  0  0  0  0  0  0
   -1.1334   -0.8827    0.0000 H   0  0  0  0  0  0  0  0  0  0  0  0
   -3.6406   -0.3701    0.0000 H   0  0  0  0  0  0  0  0  0  0  0  0
   -3.5982   -1.3105    0.0000 H   0  0  0  0  0  0  0  0  0  0  0  0
   -1.0333   -1.3361    0.0000 H   0  0  0  0  0  0  0  0  0  0  0  0
   -0.7248   -2.6452    0.0000 H   0  0  0  0  0  0  0  0  0  0  0  0
   -5.1965   -3.1491    0.0000 H   0  0  0  0  0  0  0  0  0  0  0  0
   -4.0543   -1.5222    0.0000 H   0  0  0  0  0  0  0  0  0  0  0  0
   -5.0285   -4.6397    0.0000 H   0  0  0  0  0  0  0  0  0  0  0  0
   -4.5769   -6.8530    0.0000 H   0  0  0  0  0  0  0  0  0  0  0  0
   -1.8794   -5.7943    0.0000 H   0  0  0  0  0  0  0  0  0  0  0  0
   -0.3889   -5.6264    0.0000 H   0  0  0  0  0  0  0  0  0  0  0  0
   -0.7248   -2.6452    0.0000 H   0  0  0  0  0  0  0  0  0  0  0  0
    1.1017   -5.4584    0.0000 H   0  0  0  0  0  0  0  0  0  0  0  0
    0.9487   -2.4679    0.0000 H   0  0  0  0  0  0  0  0  0  0  0  0
    2.5923   -5.2905    0.0000 H   0  0  0  0  0  0  0  0  0  0  0  0
    2.2564   -2.3093    0.0000 H   0  0  0  0  0  0  0  0  0  0  0  0
    4.0828   -5.1225    0.0000 H   0  0  0  0  0  0  0  0  0  0  0  0
    3.7469   -2.1414    0.0000 H   0  0  0  0  0  0  0  0  0  0  0  0
    4.7555   -1.2597    0.0000 H   0  0  0  0  0  0  0  0  0  0  0  0
    7.0392   -1.0024    0.0000 H   0  0  0  0  0  0  0  0  0  0  0  0
    5.6963   -6.0458    0.0000 H   0  0  0  0  0  0  0  0  0  0  0  0
    8.5618   -6.4777    0.0000 H   0  0  0  0  0  0  0  0  0  0  0  0
    9.2134   -2.3317    0.0000 H   0  0  0  0  0  0  0  0  0  0  0  0
   11.5641   -2.8901    0.0000 H   0  0  0  0  0  0  0  0  0  0  0  0
   12.7605   -3.4485    0.0000 H   0  0  0  0  0  0  0  0  0  0  0  0
   13.7108   -2.1780    0.0000 H   0  0  0  0  0  0  0  0  0  0  0  0
   11.8195   -2.7898    0.0000 H   0  0  0  0  0  0  0  0  0  0  0  0
   15.8606   -4.7525    0.0000 H   0  0  0  0  0  0  0  0  0  0  0  0
   15.0856   -2.7778    0.0000 H   0  0  0  0  0  0  0  0  0  0  0  0
   15.2608   -6.1273    0.0000 H   0  0  0  0  0  0  0  0  0  0  0  0
   14.6610   -7.5022    0.0000 H   0  0  0  0  0  0  0  0  0  0  0  0
   12.3539   -5.7272    0.0000 H   0  0  0  0  0  0  0  0  0  0  0  0
   15.0659   -8.3217    0.0000 H   0  0  0  0  0  0  0  0  0  0  0  0
   15.8773  -10.3115    0.0000 H   0  0  0  0  0  0  0  0  0  0  0  0
   14.4444  -12.1082    0.0000 H   0  0  0  0  0  0  0  0  0  0  0  0
   10.8334  -11.9279    0.0000 H   0  0  0  0  0  0  0  0  0  0  0  0
   13.2147  -12.9669    0.0000 H   0  0  0  0  0  0  0  0  0  0  0  0
   10.6617  -10.4811    0.0000 H   0  0  0  0  0  0  0  0  0  0  0  0
    8.2625   -8.6480    0.0000 H   0  0  0  0  0  0  0  0  0  0  0  0
    9.8486   -9.8464    0.0000 H   0  0  0  0  0  0  0  0  0  0  0  0
    9.0886   -6.9962    0.0000 H   0  0  0  0  0  0  0  0  0  0  0  0
   12.4456   -5.7719    0.0000 H   0  0  0  0  0  0  0  0  0  0  0  0
   12.0319   -5.5867    0.0000 H   0  0  0  0  0  0  0  0  0  0  0  0
   10.5088   -8.4641    0.0000 H   0  0  0  0  0  0  0  0  0  0  0  0
   -4.5313    0.5146    0.0000 H   0  0  0  0  0  0  0  0  0  0  0  0
   -4.7072    2.0753    0.0000 H   0  0  0  0  0  0  0  0  0  0  0  0
   -4.3128    3.2022    0.0000 H   0  0  0  0  0  0  0  0  0  0  0  0
   -3.2022    4.3128    0.0000 H   0  0  0  0  0  0  0  0  0  0  0  0
   -2.0753    4.7072    0.0000 H   0  0  0  0  0  0  0  0  0  0  0  0
   -0.5146    4.5313    0.0000 H   0  0  0  0  0  0  0  0  0  0  0  0
    0.4964    3.8961    0.0000 H   0  0  0  0  0  0  0  0  0  0  0  0
    1.3190    2.7490    0.0000 H   0  0  0  0  0  0  0  0  0  0  0  0
    1.3515    1.7115    0.0000 H   0  0  0  0  0  0  0  0  0  0  0  0
  1  2  1  0
  2  3  1  0
  3  4  1  0
  4  5  1  0
  5  6  1  0
  6  7  1  0
  7  8  1  0
  8  9  1  0
  9 10  1  0
  9 11  1  0
 11 12  1  0
 12 13  1  0
 13 14  1  0
 14 15  1  0
 16 15  1  6
 16 17  1  0
 17 18  1  0
 18 19  1  0
 19 20  1  0
 20 21  1  0
 21 22  1  0
 22 23  1  0
 23 24  1  0
 24 25  1  0
 25 26  1  0
 26 27  1  0
 27 28  1  0
 29 28  1  1
 29 30  1  0
 30 31  1  0
 31 32  1  0
 32 33  1  6
 32 34  1  0
 34 35  1  0
 35 36  1  0
 35 37  1  1
 23 38  1  0
 38 39  1  0
  5 40  1  0
 40 41  1  0
 41 42  1  0
 42 43  1  0
 43 44  1  0
 44  2  1  0
 44  4  1  0
 11  7  1  0
 18 16  1  0
 38 21  1  0
 19 16  1  0
 27 24  1  0
 34 29  1  0
 18 20  1  1
 35 29  1  0
 32 30  1  0
  1 45  1  0
  1 46  1  0
  1 47  1  0
  2 48  1  1
  3 49  1  0
  3 50  1  0
  4 51  1  6
  5 52  1  1
  6 53  1  0
  6 54  1  0
  7 55  1  6
  8 56  1  0
  8 57  1  0
  9 58  1  6
 10 59  1  0
 11 60  1  6
 12 61  1  0
 12 62  1  0
 13 63  1  0
 13 64  1  0
 14 65  1  0
 14 66  1  0
 15 67  1  0
 15 68  1  0
 17 69  1  0
 17 70  1  0
 19 71  1  1
 21 72  1  1
 22 73  1  0
 23 74  1  1
 24 75  1  1
 25 76  1  0
 25 77  1  0
 26 78  1  0
 26 79  1  0
 27 80  1  1
 28 81  1  0
 28 82  1  0
 30 83  1  1
 31 84  1  0
 31 85  1  0
 33 86  1  0
 33 87  1  0
 34 88  1  1
 36 89  1  0
 36 90  1  0
 36 91  1  0
 37 92  1  0
 38 93  1  1
 39 94  1  0
 40 95  1  0
 40 96  1  0
 41 97  1  0
 41 98  1  0
 42 99  1  0
 42100  1  0
 43101  1  0
 43102  1  0
 44103  1  1
M  END
$$$$
