
     RDKit          2D

106116  0  0  0  0  0  0  0  0999 V2000
   -6.1033   -4.5662    0.0000 C   0  0  0  0  0  0  0  0  0  0  0  0
   -4.6768   -5.0298    0.0000 C   0  0  0  0  0  0  0  0  0  0  0  0
   -3.2502   -5.4933    0.0000 C   0  0  0  0  0  0  0  0  0  0  0  0
   -1.8236   -5.9568    0.0000 C   0  0  0  0  0  0  0  0  0  0  0  0
   -1.3601   -4.5302    0.0000 C   0  0  0  0  0  0  0  0  0  0  0  0
    0.0665   -4.9937    0.0000 C   0  0  0  0  0  0  0  0  0  0  0  0
   -0.1422   -6.4791    0.0000 C   0  0  0  0  0  0  0  0  0  0  0  0
    1.5656   -4.9414    0.0000 C   0  0  0  0  0  0  0  0  0  0  0  0
    0.7707   -3.6693    0.0000 C   0  0  0  0  0  0  0  0  0  0  0  0
   -2.7866   -4.0667    0.0000 C   0  0  0  0  0  0  0  0  0  0  0  0
   -2.3231   -2.6401    0.0000 C   0  0  0  0  0  0  0  0  0  0  0  0
   -1.8596   -1.2135    0.0000 C   0  0  0  0  0  0  0  0  0  0  0  0
   -3.1586   -1.9635    0.0000 C   0  0  0  0  0  0  0  0  0  0  0  0
   -4.6358   -1.7031    0.0000 C   0  0  0  0  0  0  0  0  0  0  0  0
   -5.6000   -0.5540    0.0000 N   0  0  0  0  0  2  0  0  0  0  0  0
   -5.6000    0.9460    0.0000 C   0  0  0  0  0  0  0  0  0  0  0  0
   -7.0370    0.5158    0.0000 N   0  0  0  0  0  2  0  0  0  0  0  0
   -8.1281    1.5452    0.0000 C   0  0  0  0  0  0  0  0  0  0  0  0
   -8.9813    2.7789    0.0000 C   0  0  0  0  0  0  0  0  0  0  0  0
  -10.4183    2.3487    0.0000 C   0  0  0  0  0  0  0  0  0  0  0  0
  -11.8337    2.8453    0.0000 C   0  0  0  0  0  0  0  0  0  0  0  0
  -12.7433    1.6526    0.0000 C   0  0  0  0  0  0  0  0  0  0  0  0
  -13.9771    0.7994    0.0000 C   0  0  0  0  0  0  0  0  0  0  0  0
  -14.8303    2.0331    0.0000 C   0  0  0  0  0  0  0  0  0  0  0  0
  -16.0540    2.9006    0.0000 C   0  0  0  0  0  0  0  0  0  0  0  0
  -16.1934    1.4071    0.0000 C   0  0  0  0  0  0  0  0  0  0  0  0
  -13.1239   -0.4343    0.0000 C   0  0  0  0  0  0  0  0  0  0  0  0
  -14.3576   -1.2875    0.0000 C   0  0  0  0  0  0  0  0  0  0  0  0
  -15.4120   -0.2207    0.0000 N   0  0  0  0  0  0  0  0  0  0  0  0
  -15.2251   -2.5112    0.0000 C   0  0  0  0  0  0  0  0  0  0  0  0
  -13.7316   -2.6506    0.0000 C   0  0  0  0  0  0  0  0  0  0  0  0
  -13.6095   -4.1457    0.0000 C   0  0  0  0  0  0  0  0  0  0  0  0
  -13.4875   -5.6407    0.0000 C   0  0  0  0  0  0  0  0  0  0  0  0
  -11.8901    0.4189    0.0000 C   0  0  0  0  0  0  0  0  0  0  0  0
  -10.4532    0.8491    0.0000 C   0  0  0  0  0  0  0  0  0  0  0  0
  -10.1755   -0.6250    0.0000 C   0  0  0  0  0  0  0  0  0  0  0  0
   -9.0377    0.3525    0.0000 C   0  0  0  0  0  0  0  0  0  0  0  0
   -4.6358    2.0951    0.0000 O   0  0  0  0  0  0  0  0  0  0  0  0
   -3.1586    2.3556    0.0000 C   0  0  0  0  0  0  0  0  0  0  0  0
   -1.8596    1.2135    0.0000 C   0  0  0  0  0  0  0  0  0  0  0  0
   -0.4330    0.7500    0.0000 C   0  0  0  0  0  0  0  0  0  0  0  0
    0.8660    0.0000    0.0000 C   0  0  0  0  0  0  0  0  0  0  0  0
   -0.4330   -0.7500    0.0000 C   0  0  0  0  0  0  0  0  0  0  0  0
   -2.7413    0.0000    0.0000 C   0  0  0  0  0  0  0  0  0  0  0  0
   -3.8560    1.0037    0.0000 O   0  0  0  0  0  0  0  0  0  0  0  0
   -7.5299   -4.1027    0.0000 H   0  0  0  0  0  0  0  0  0  0  0  0
   -6.5669   -5.9928    0.0000 H   0  0  0  0  0  0  0  0  0  0  0  0
   -5.6398   -3.1396    0.0000 H   0  0  0  0  0  0  0  0  0  0  0  0
   -5.0137   -5.7522    0.0000 H   0  0  0  0  0  0  0  0  0  0  0  0
   -4.8288   -5.8123    0.0000 H   0  0  0  0  0  0  0  0  0  0  0  0
   -3.7137   -6.9199    0.0000 H   0  0  0  0  0  0  0  0  0  0  0  0
   -2.2871   -7.3834    0.0000 H   0  0  0  0  0  0  0  0  0  0  0  0
   -0.5516   -6.7518    0.0000 H   0  0  0  0  0  0  0  0  0  0  0  0
   -0.8965   -3.1036    0.0000 H   0  0  0  0  0  0  0  0  0  0  0  0
   -0.3510   -7.9646    0.0000 H   0  0  0  0  0  0  0  0  0  0  0  0
    1.3066   -6.8674    0.0000 H   0  0  0  0  0  0  0  0  0  0  0  0
   -1.6340   -6.6360    0.0000 H   0  0  0  0  0  0  0  0  0  0  0  0
    2.0540   -6.3597    0.0000 H   0  0  0  0  0  0  0  0  0  0  0  0
    2.9564   -4.3795    0.0000 H   0  0  0  0  0  0  0  0  0  0  0  0
    1.8854   -2.6656    0.0000 H   0  0  0  0  0  0  0  0  0  0  0  0
   -0.0017   -2.3835    0.0000 H   0  0  0  0  0  0  0  0  0  0  0  0
   -1.2903   -4.1712    0.0000 H   0  0  0  0  0  0  0  0  0  0  0  0
   -3.8195   -2.5356    0.0000 H   0  0  0  0  0  0  0  0  0  0  0  0
   -0.8268   -2.7447    0.0000 H   0  0  0  0  0  0  0  0  0  0  0  0
   -2.3491   -3.2263    0.0000 H   0  0  0  0  0  0  0  0  0  0  0  0
   -3.6634   -3.3760    0.0000 H   0  0  0  0  0  0  0  0  0  0  0  0
   -4.6446   -3.2030    0.0000 H   0  0  0  0  0  0  0  0  0  0  0  0
   -6.0132   -2.2972    0.0000 H   0  0  0  0  0  0  0  0  0  0  0  0
   -6.2654    2.2904    0.0000 H   0  0  0  0  0  0  0  0  0  0  0  0
   -7.1179    2.6541    0.0000 H   0  0  0  0  0  0  0  0  0  0  0  0
   -7.6651    3.4985    0.0000 H   0  0  0  0  0  0  0  0  0  0  0  0
   -9.3863    4.2232    0.0000 H   0  0  0  0  0  0  0  0  0  0  0  0
  -10.3834    3.8483    0.0000 H   0  0  0  0  0  0  0  0  0  0  0  0
  -11.3619    4.2692    0.0000 H   0  0  0  0  0  0  0  0  0  0  0  0
  -13.0103    3.7757    0.0000 H   0  0  0  0  0  0  0  0  0  0  0  0
  -13.6391    2.8558    0.0000 H   0  0  0  0  0  0  0  0  0  0  0  0
  -15.3056    0.1029    0.0000 H   0  0  0  0  0  0  0  0  0  0  0  0
  -14.0503    3.3144    0.0000 H   0  0  0  0  0  0  0  0  0  0  0  0
  -15.4121    4.2564    0.0000 H   0  0  0  0  0  0  0  0  0  0  0  0
  -17.5006    3.2973    0.0000 H   0  0  0  0  0  0  0  0  0  0  0  0
  -17.6884    1.2851    0.0000 H   0  0  0  0  0  0  0  0  0  0  0  0
  -16.3590   -0.0837    0.0000 H   0  0  0  0  0  0  0  0  0  0  0  0
  -12.2707   -1.6680    0.0000 H   0  0  0  0  0  0  0  0  0  0  0  0
  -16.8632   -0.6005    0.0000 H   0  0  0  0  0  0  0  0  0  0  0  0
  -15.0154    1.2259    0.0000 H   0  0  0  0  0  0  0  0  0  0  0  0
  -16.5808   -1.8694    0.0000 H   0  0  0  0  0  0  0  0  0  0  0  0
  -15.7951   -3.8987    0.0000 H   0  0  0  0  0  0  0  0  0  0  0  0
  -12.2450   -2.4506    0.0000 H   0  0  0  0  0  0  0  0  0  0  0  0
  -12.1145   -4.0236    0.0000 H   0  0  0  0  0  0  0  0  0  0  0  0
  -15.0785   -4.4490    0.0000 H   0  0  0  0  0  0  0  0  0  0  0  0
  -13.3655   -7.1357    0.0000 H   0  0  0  0  0  0  0  0  0  0  0  0
  -14.9825   -5.7627    0.0000 H   0  0  0  0  0  0  0  0  0  0  0  0
  -11.9925   -5.5187    0.0000 H   0  0  0  0  0  0  0  0  0  0  0  0
  -11.4101   -1.0022    0.0000 H   0  0  0  0  0  0  0  0  0  0  0  0
  -11.4092   -1.4783    0.0000 H   0  0  0  0  0  0  0  0  0  0  0  0
   -9.4105   -1.9152    0.0000 H   0  0  0  0  0  0  0  0  0  0  0  0
   -7.9467   -0.6769    0.0000 H   0  0  0  0  0  0  0  0  0  0  0  0
   -3.8318    3.6960    0.0000 H   0  0  0  0  0  0  0  0  0  0  0  0
   -2.2012    3.5102    0.0000 H   0  0  0  0  0  0  0  0  0  0  0  0
   -2.1458    2.6860    0.0000 H   0  0  0  0  0  0  0  0  0  0  0  0
    0.1771    2.1203    0.0000 H   0  0  0  0  0  0  0  0  0  0  0  0
    1.8302    1.1491    0.0000 H   0  0  0  0  0  0  0  0  0  0  0  0
    1.8302   -1.1491    0.0000 H   0  0  0  0  0  0  0  0  0  0  0  0
    0.3396   -2.0357    0.0000 H   0  0  0  0  0  0  0  0  0  0  0  0
   -3.8560   -1.0037    0.0000 H   0  0  0  0  0  0  0  0  0  0  0  0
   -3.9084    2.5028    0.0000 H   0  0  0  0  0  0  0  0  0  0  0  0
  1  2  1  0
  2  3  1  0
  3  4  1  0
  4  5  1  0
  5  6  1  0
  6  7  1  0
  6  8  1  0
  8  9  1  0
  5 10  1  0
 10 11  1  0
 12 11  1  6
 12 13  1  0
 13 14  1  0
 14 15  1  0
 15 16  1  0
 16 17  1  0
 17 18  1  0
 18 19  1  0
 19 20  1  0
 20 21  1  0
 21 22  1  0
 22 23  1  0
 23 24  1  0
 24 25  1  0
 25 26  1  0
 23 27  1  0
 27 28  1  0
 28 29  1  6
 28 30  1  0
 30 31  1  0
 31 32  1  0
 32 33  1  0
 27 34  1  0
 34 35  1  0
 35 36  1  6
 36 37  1  0
 16 38  1  0
 38 39  1  0
 39 40  1  0
 40 41  1  0
 41 42  1  0
 42 43  1  0
 40 44  1  0
 44 45  1  0
 10  3  1  0
 43 12  1  0
  9  6  1  0
 44 12  1  0
 37 18  1  0
 43 41  1  0
 35 20  1  0
 34 22  1  0
 37 35  1  0
 26 24  1  0
 31 28  1  0
  1 46  1  0
  1 47  1  0
  1 48  1  0
  2 49  1  0
  2 50  1  0
  3 51  1  6
  4 52  1  0
  4 53  1  0
  5 54  1  6
  7 55  1  0
  7 56  1  0
  7 57  1  0
  8 58  1  0
  8 59  1  0
  9 60  1  0
  9 61  1  0
 10 62  1  1
 11 63  1  0
 11 64  1  0
 13 65  1  0
 13 66  1  0
 14 67  1  0
 14 68  1  0
 16 69  1  6
 18 70  1  6
 19 71  1  0
 19 72  1  0
 20 73  1  6
 21 74  1  0
 21 75  1  0
 22 76  1  6
 23 77  1  6
 24 78  1  0
 25 79  1  0
 25 80  1  0
 26 81  1  0
 26 82  1  0
 27 83  1  6
 29 84  1  0
 29 85  1  0
 30 86  1  0
 30 87  1  0
 31 88  1  1
 32 89  1  0
 32 90  1  0
 33 91  1  0
 33 92  1  0
 33 93  1  0
 34 94  1  6
 36 95  1  0
 36 96  1  0
 37 97  1  1
 39 98  1  0
 39 99  1  0
 40100  1  6
 41101  1  6
 42102  1  0
 42103  1  0
 43104  1  6
 44105  1  1
 45106  1  0
M  RAD  2  15   2  17   2
M  END
$$$$
