
     RDKit          2D

 70 73  0  0  0  0  0  0  0  0999 V2000
    2.7760    0.0000    0.0000 C   0  0  0  0  0  0  0  0  0  0  0  0
    1.2760    0.0000    0.0000 C   0  0  0  0  0  0  0  0  0  0  0  0
    0.3943    1.2135    0.0000 C   0  0  0  0  0  0  0  0  0  0  0  0
   -0.2158    2.5838    0.0000 C   0  0  0  0  0  0  0  0  0  0  0  0
   -1.0323    0.7500    0.0000 C   0  0  0  0  0  0  0  0  0  0  0  0
   -1.0323   -0.7500    0.0000 C   0  0  0  0  0  0  0  0  0  0  0  0
   -2.1470   -1.7537    0.0000 C   0  0  0  0  0  0  0  0  0  0  0  0
   -1.8351   -3.2209    0.0000 C   0  0  0  0  0  0  0  0  0  0  0  0
   -0.4086   -3.6844    0.0000 C   0  0  0  0  0  0  0  0  0  0  0  0
    0.7735   -4.6079    0.0000 C   0  0  0  0  0  0  0  0  0  0  0  0
    1.9555   -5.5314    0.0000 N   0  0  0  0  0  0  0  0  0  0  0  0
    1.7467   -7.0168    0.0000 C   0  0  0  0  0  0  0  0  0  0  0  0
    0.2613   -6.8081    0.0000 C   0  0  0  0  0  0  0  0  0  0  0  0
    3.2321   -7.2256    0.0000 C   0  0  0  0  0  0  0  0  0  0  0  0
    2.7686   -8.6522    0.0000 C   0  0  0  0  0  0  0  0  0  0  0  0
    3.7723   -9.7669    0.0000 C   0  0  0  0  0  0  0  0  0  0  0  0
    5.2395   -9.4550    0.0000 C   0  0  0  0  0  0  0  0  0  0  0  0
    5.7030   -8.0284    0.0000 C   0  0  0  0  0  0  0  0  0  0  0  0
    6.6265   -6.8464    0.0000 C   0  0  0  0  0  0  0  0  0  0  0  0
    7.6302   -7.9611    0.0000 C   0  0  0  0  0  0  0  0  0  0  0  0
    9.0975   -7.6493    0.0000 C   0  0  0  0  0  0  0  0  0  0  0  0
    9.5610   -6.2227    0.0000 C   0  0  0  0  0  0  0  0  0  0  0  0
    8.5573   -5.1080    0.0000 C   0  0  0  0  0  0  0  0  0  0  0  0
    7.0901   -5.4198    0.0000 C   0  0  0  0  0  0  0  0  0  0  0  0
    4.6993   -6.9137    0.0000 C   0  0  0  0  0  0  0  0  0  0  0  0
    0.7062   -2.6807    0.0000 C   0  0  0  0  0  0  0  0  0  0  0  0
    0.3943   -1.2135    0.0000 C   0  0  0  0  0  0  0  0  0  0  0  0
    3.5260    1.2990    0.0000 H   0  0  0  0  0  0  0  0  0  0  0  0
    3.5260   -1.2990    0.0000 H   0  0  0  0  0  0  0  0  0  0  0  0
    1.6933    1.9635    0.0000 H   0  0  0  0  0  0  0  0  0  0  0  0
   -0.8259    3.9542    0.0000 H   0  0  0  0  0  0  0  0  0  0  0  0
   -0.9781    2.3508    0.0000 H   0  0  0  0  0  0  0  0  0  0  0  0
    1.1545    3.1939    0.0000 H   0  0  0  0  0  0  0  0  0  0  0  0
   -2.5321    0.7762    0.0000 H   0  0  0  0  0  0  0  0  0  0  0  0
   -1.2918    1.5037    0.0000 H   0  0  0  0  0  0  0  0  0  0  0  0
   -2.4026   -0.1399    0.0000 H   0  0  0  0  0  0  0  0  0  0  0  0
   -3.5378   -2.3156    0.0000 H   0  0  0  0  0  0  0  0  0  0  0  0
   -3.0910   -0.5880    0.0000 H   0  0  0  0  0  0  0  0  0  0  0  0
   -2.0439   -4.7063    0.0000 H   0  0  0  0  0  0  0  0  0  0  0  0
   -3.3342   -3.2733    0.0000 H   0  0  0  0  0  0  0  0  0  0  0  0
   -1.1128   -5.0089    0.0000 H   0  0  0  0  0  0  0  0  0  0  0  0
   -0.2872   -5.6686    0.0000 H   0  0  0  0  0  0  0  0  0  0  0  0
    1.8342   -3.5473    0.0000 H   0  0  0  0  0  0  0  0  0  0  0  0
    3.2674   -4.8042    0.0000 H   0  0  0  0  0  0  0  0  0  0  0  0
    1.3585   -8.4657    0.0000 H   0  0  0  0  0  0  0  0  0  0  0  0
   -1.2241   -6.5993    0.0000 H   0  0  0  0  0  0  0  0  0  0  0  0
    0.0526   -8.2935    0.0000 H   0  0  0  0  0  0  0  0  0  0  0  0
   -0.0762   -5.3465    0.0000 H   0  0  0  0  0  0  0  0  0  0  0  0
    3.3629   -5.7313    0.0000 H   0  0  0  0  0  0  0  0  0  0  0  0
    1.8451   -9.8342    0.0000 H   0  0  0  0  0  0  0  0  0  0  0  0
    1.3682   -8.1147    0.0000 H   0  0  0  0  0  0  0  0  0  0  0  0
    3.3088  -11.1935    0.0000 H   0  0  0  0  0  0  0  0  0  0  0  0
    6.2432  -10.5697    0.0000 H   0  0  0  0  0  0  0  0  0  0  0  0
    6.9317   -8.8888    0.0000 H   0  0  0  0  0  0  0  0  0  0  0  0
    5.3978   -5.9860    0.0000 H   0  0  0  0  0  0  0  0  0  0  0  0
    8.1921   -9.3519    0.0000 H   0  0  0  0  0  0  0  0  0  0  0  0
    6.4645   -8.9052    0.0000 H   0  0  0  0  0  0  0  0  0  0  0  0
   10.5829   -7.8580    0.0000 H   0  0  0  0  0  0  0  0  0  0  0  0
    9.1498   -9.1484    0.0000 H   0  0  0  0  0  0  0  0  0  0  0  0
   10.4845   -5.0407    0.0000 H   0  0  0  0  0  0  0  0  0  0  0  0
   10.8854   -6.9269    0.0000 H   0  0  0  0  0  0  0  0  0  0  0  0
    7.9954   -3.7172    0.0000 H   0  0  0  0  0  0  0  0  0  0  0  0
    9.8294   -4.3131    0.0000 H   0  0  0  0  0  0  0  0  0  0  0  0
    5.6047   -5.2111    0.0000 H   0  0  0  0  0  0  0  0  0  0  0  0
    7.0377   -3.9208    0.0000 H   0  0  0  0  0  0  0  0  0  0  0  0
    4.1374   -5.5229    0.0000 H   0  0  0  0  0  0  0  0  0  0  0  0
    5.8650   -5.9697    0.0000 H   0  0  0  0  0  0  0  0  0  0  0  0
    2.1551   -2.2926    0.0000 H   0  0  0  0  0  0  0  0  0  0  0  0
    1.6502   -3.8464    0.0000 H   0  0  0  0  0  0  0  0  0  0  0  0
    1.8886   -1.3442    0.0000 H   0  0  0  0  0  0  0  0  0  0  0  0
  1  2  2  3
  2  3  1  0
  3  4  1  0
  3  5  1  0
  5  6  1  0
  6  7  1  0
  7  8  1  0
  8  9  1  0
  9 10  1  0
 10 11  1  0
 11 12  1  0
 12 13  1  0
 12 14  1  0
 14 15  1  0
 15 16  1  0
 16 17  2  0
 17 18  1  0
 18 19  1  0
 19 20  1  0
 20 21  1  0
 21 22  1  0
 22 23  1  0
 23 24  1  0
 18 25  1  0
  9 26  1  0
 26 27  1  0
 27  2  1  0
 27  6  1  0
 25 14  1  0
 24 19  1  0
  1 28  1  0
  1 29  1  0
  3 30  1  0
  4 31  1  0
  4 32  1  0
  4 33  1  0
  5 34  1  0
  5 35  1  0
  6 36  1  0
  7 37  1  0
  7 38  1  0
  8 39  1  0
  8 40  1  0
  9 41  1  0
 10 42  1  0
 10 43  1  0
 11 44  1  0
 12 45  1  0
 13 46  1  0
 13 47  1  0
 13 48  1  0
 14 49  1  0
 15 50  1  0
 15 51  1  0
 16 52  1  0
 17 53  1  0
 18 54  1  0
 19 55  1  0
 20 56  1  0
 20 57  1  0
 21 58  1  0
 21 59  1  0
 22 60  1  0
 22 61  1  0
 23 62  1  0
 23 63  1  0
 24 64  1  0
 24 65  1  0
 25 66  1  0
 25 67  1  0
 26 68  1  0
 26 69  1  0
 27 70  1  0
M  END
$$$$
