
     RDKit          2D

 63 66  0  0  0  0  0  0  0  0999 V2000
    0.8149    4.1118    0.0000 C   0  0  0  0  0  0  0  0  0  0  0  0
    2.3149    4.1118    0.0000 C   0  0  0  0  0  0  0  0  0  0  0  0
    3.8149    4.1118    0.0000 C   0  0  0  0  0  0  0  0  0  0  0  0
    2.3149    2.6118    0.0000 C   0  0  0  0  0  0  0  0  0  0  0  0
    2.3149    1.1118    0.0000 C   0  0  0  0  0  0  0  0  0  0  0  0
    3.0649   -0.1873    0.0000 C   0  0  0  0  0  0  0  0  0  0  0  0
    2.6767   -1.6362    0.0000 C   0  0  0  0  0  0  0  0  0  0  0  0
    1.3706   -2.3740    0.0000 C   0  0  0  0  0  0  0  0  0  0  0  0
    2.1206   -3.6731    0.0000 C   0  0  0  0  0  0  0  0  0  0  0  0
    1.9807   -1.0037    0.0000 C   0  0  0  0  0  0  0  0  0  0  0  0
    0.8660    0.0000    0.0000 C   0  0  0  0  0  0  0  0  0  0  0  0
   -0.4330    0.7500    0.0000 C   0  0  0  0  0  0  0  0  0  0  0  0
    0.8660    1.5000    0.0000 C   0  0  0  0  0  0  0  0  0  0  0  0
   -0.4330   -0.7500    0.0000 C   0  0  0  0  0  0  0  0  0  0  0  0
   -0.1211   -2.2172    0.0000 C   0  0  0  0  0  0  0  0  0  0  0  0
   -1.6129   -2.3740    0.0000 C   0  0  0  0  0  0  0  0  0  0  0  0
   -3.1047   -2.5308    0.0000 C   0  0  0  0  0  0  0  0  0  0  0  0
   -4.5168   -2.0248    0.0000 C   0  0  0  0  0  0  0  0  0  0  0  0
   -5.7928   -2.8133    0.0000 C   0  0  0  0  0  0  0  0  0  0  0  0
   -5.9719   -4.3026    0.0000 C   0  0  0  0  0  0  0  0  0  0  0  0
   -4.9192   -5.3712    0.0000 C   0  0  0  0  0  0  0  0  0  0  0  0
   -3.4274   -5.2144    0.0000 C   0  0  0  0  0  0  0  0  0  0  0  0
   -2.6199   -3.9503    0.0000 C   0  0  0  0  0  0  0  0  0  0  0  0
   -0.6851    4.1118    0.0000 H   0  0  0  0  0  0  0  0  0  0  0  0
    0.8149    5.6118    0.0000 H   0  0  0  0  0  0  0  0  0  0  0  0
    0.8149    3.3146    0.0000 H   0  0  0  0  0  0  0  0  0  0  0  0
    2.3149    5.6118    0.0000 H   0  0  0  0  0  0  0  0  0  0  0  0
    5.3149    4.1118    0.0000 H   0  0  0  0  0  0  0  0  0  0  0  0
    3.8149    5.6118    0.0000 H   0  0  0  0  0  0  0  0  0  0  0  0
    3.9978    2.6230    0.0000 H   0  0  0  0  0  0  0  0  0  0  0  0
    1.5178    2.6118    0.0000 H   0  0  0  0  0  0  0  0  0  0  0  0
    3.8037    2.4289    0.0000 H   0  0  0  0  0  0  0  0  0  0  0  0
    3.7057    1.6737    0.0000 H   0  0  0  0  0  0  0  0  0  0  0  0
    4.2470    0.7362    0.0000 H   0  0  0  0  0  0  0  0  0  0  0  0
    4.4457   -0.7733    0.0000 H   0  0  0  0  0  0  0  0  0  0  0  0
    4.1321   -1.9991    0.0000 H   0  0  0  0  0  0  0  0  0  0  0  0
    3.2386   -3.0269    0.0000 H   0  0  0  0  0  0  0  0  0  0  0  0
    2.8706   -4.9721    0.0000 H   0  0  0  0  0  0  0  0  0  0  0  0
    0.8216   -4.4231    0.0000 H   0  0  0  0  0  0  0  0  0  0  0  0
    3.5014   -3.0870    0.0000 H   0  0  0  0  0  0  0  0  0  0  0  0
    3.4623   -1.2382    0.0000 H   0  0  0  0  0  0  0  0  0  0  0  0
    2.5426    0.3871    0.0000 H   0  0  0  0  0  0  0  0  0  0  0  0
    2.0151    0.9641    0.0000 H   0  0  0  0  0  0  0  0  0  0  0  0
   -1.1830    2.0490    0.0000 H   0  0  0  0  0  0  0  0  0  0  0  0
   -0.1946    2.5607    0.0000 H   0  0  0  0  0  0  0  0  0  0  0  0
    1.2794    2.9419    0.0000 H   0  0  0  0  0  0  0  0  0  0  0  0
   -1.9328   -0.7238    0.0000 H   0  0  0  0  0  0  0  0  0  0  0  0
   -0.1211   -3.7172    0.0000 H   0  0  0  0  0  0  0  0  0  0  0  0
   -1.2755   -3.8356    0.0000 H   0  0  0  0  0  0  0  0  0  0  0  0
   -1.9504   -0.9125    0.0000 H   0  0  0  0  0  0  0  0  0  0  0  0
   -2.7454   -1.0745    0.0000 H   0  0  0  0  0  0  0  0  0  0  0  0
   -3.8694   -0.6717    0.0000 H   0  0  0  0  0  0  0  0  0  0  0  0
   -5.4314   -0.8359    0.0000 H   0  0  0  0  0  0  0  0  0  0  0  0
   -6.4470   -1.4635    0.0000 H   0  0  0  0  0  0  0  0  0  0  0  0
   -7.2926   -2.7871    0.0000 H   0  0  0  0  0  0  0  0  0  0  0  0
   -7.4351   -3.9725    0.0000 H   0  0  0  0  0  0  0  0  0  0  0  0
   -6.9275   -5.4588    0.0000 H   0  0  0  0  0  0  0  0  0  0  0  0
   -6.0896   -6.3094    0.0000 H   0  0  0  0  0  0  0  0  0  0  0  0
   -4.6110   -6.8392    0.0000 H   0  0  0  0  0  0  0  0  0  0  0  0
   -3.4236   -6.7144    0.0000 H   0  0  0  0  0  0  0  0  0  0  0  0
   -2.0876   -5.8887    0.0000 H   0  0  0  0  0  0  0  0  0  0  0  0
   -1.4448   -4.8826    0.0000 H   0  0  0  0  0  0  0  0  0  0  0  0
   -1.2573   -3.3232    0.0000 H   0  0  0  0  0  0  0  0  0  0  0  0
  1  2  1  0
  2  3  1  0
  2  4  1  0
  4  5  1  0
  5  6  1  0
  6  7  1  0
  7  8  1  0
  8  9  1  6
  8 10  1  0
 10 11  1  0
 11 12  1  0
 12 13  1  0
 12 14  1  0
 14 15  1  0
 15 16  1  0
 16 17  1  0
 17 18  1  0
 18 19  1  0
 19 20  1  0
 20 21  1  0
 21 22  1  0
 22 23  1  0
 13  5  1  0
 23 17  1  0
 15  8  1  0
 14 11  1  0
  1 24  1  0
  1 25  1  0
  1 26  1  0
  2 27  1  0
  3 28  1  0
  3 29  1  0
  3 30  1  0
  4 31  1  0
  4 32  1  0
  5 33  1  1
  6 34  1  0
  6 35  1  0
  7 36  1  0
  7 37  1  0
  9 38  1  0
  9 39  1  0
  9 40  1  0
 10 41  1  0
 10 42  1  0
 11 43  1  6
 12 44  1  6
 13 45  1  0
 13 46  1  0
 14 47  1  6
 15 48  1  6
 16 49  1  0
 16 50  1  0
 17 51  1  0
 18 52  1  0
 18 53  1  0
 19 54  1  0
 19 55  1  0
 20 56  1  0
 20 57  1  0
 21 58  1  0
 21 59  1  0
 22 60  1  0
 22 61  1  0
 23 62  1  0
 23 63  1  0
M  END
$$$$
