
     RDKit          2D

 26 25  0  0  0  0  0  0  0  0999 V2000
    0.0000    0.0000    0.0000 C   0  0  0  0  0  0  0  0  0  0  0  0
    1.5000    0.0000    0.0000 C   0  0  0  0  0  0  0  0  0  0  0  0
    3.0000    0.0000    0.0000 C   0  0  0  0  0  0  0  0  0  0  0  0
    4.5000   -0.0000    0.0000 C   0  0  0  0  0  0  0  0  0  0  0  0
    6.0000   -0.0000    0.0000 C   0  0  0  0  0  0  0  0  0  0  0  0
    7.5000   -0.0000    0.0000 O   0  0  0  0  0  0  0  0  0  0  0  0
    6.0000    1.5000    0.0000 O   0  0  0  0  0  0  0  0  0  0  0  0
    1.5000   -1.5000    0.0000 N   0  0  0  0  0  0  0  0  0  0  0  0
    0.2010   -2.2500    0.0000 C   0  0  0  0  0  0  0  0  0  0  0  0
   -0.5490   -0.9510    0.0000 N   0  0  0  0  0  2  0  0  0  0  0  0
    0.9510   -3.5490    0.0000 N   0  0  0  0  0  2  0  0  0  0  0  0
   -1.5000    0.0000    0.0000 H   0  0  0  0  0  0  0  0  0  0  0  0
    0.0000    1.5000    0.0000 H   0  0  0  0  0  0  0  0  0  0  0  0
   -0.3743   -0.7038    0.0000 H   0  0  0  0  0  0  0  0  0  0  0  0
    1.5000    1.5000    0.0000 H   0  0  0  0  0  0  0  0  0  0  0  0
    3.0000    1.5000    0.0000 H   0  0  0  0  0  0  0  0  0  0  0  0
    3.1828   -1.4888    0.0000 H   0  0  0  0  0  0  0  0  0  0  0  0
    4.5000   -1.5000    0.0000 H   0  0  0  0  0  0  0  0  0  0  0  0
    4.5000    1.5000    0.0000 H   0  0  0  0  0  0  0  0  0  0  0  0
    6.0000   -1.5000    0.0000 H   0  0  0  0  0  0  0  0  0  0  0  0
    8.2500   -1.2990    0.0000 H   0  0  0  0  0  0  0  0  0  0  0  0
    7.2990    2.2500    0.0000 H   0  0  0  0  0  0  0  0  0  0  0  0
    2.6979   -2.4028    0.0000 H   0  0  0  0  0  0  0  0  0  0  0  0
   -1.0981   -3.0000    0.0000 H   0  0  0  0  0  0  0  0  0  0  0  0
   -2.0490   -0.9510    0.0000 H   0  0  0  0  0  0  0  0  0  0  0  0
    0.2010   -4.8481    0.0000 H   0  0  0  0  0  0  0  0  0  0  0  0
  1  2  1  0
  2  3  1  0
  3  4  1  0
  4  5  1  0
  5  6  1  0
  5  7  1  0
  2  8  1  0
  8  9  1  0
  9 10  1  0
  9 11  1  0
  1 12  1  0
  1 13  1  0
  1 14  1  0
  2 15  1  0
  3 16  1  0
  3 17  1  0
  4 18  1  0
  4 19  1  0
  5 20  1  0
  6 21  1  0
  7 22  1  0
  8 23  1  0
  9 24  1  0
 10 25  1  0
 11 26  1  0
M  RAD  2  10   2  11   2
M  END
$$$$
