
     RDKit          2D

 22 23  0  0  0  0  0  0  0  0999 V2000
    0.8660    9.0000    0.0000 F   0  0  0  0  0  0  0  0  0  0  0  0
    0.8660    7.5000    0.0000 C   0  0  0  0  0  0  0  0  0  0  0  0
    2.3660    7.5000    0.0000 F   0  0  0  0  0  0  0  0  0  0  0  0
   -0.6340    7.5000    0.0000 F   0  0  0  0  0  0  0  0  0  0  0  0
    0.8660    6.0000    0.0000 C   0  0  0  0  0  0  0  0  0  0  0  0
    0.8660    4.5000    0.0000 C   0  0  0  0  0  0  0  0  0  0  0  0
    0.8660    3.0000    0.0000 C   0  0  0  0  0  0  0  0  0  0  0  0
   -0.4330    2.2500    0.0000 C   0  0  0  0  0  0  0  0  0  0  0  0
   -0.4330    0.7500    0.0000 C   0  0  0  0  0  0  0  0  0  0  0  0
    0.8660    0.0000    0.0000 C   0  0  0  0  0  0  0  0  0  0  0  0
   -0.4330   -0.7500    0.0000 C   0  0  0  0  0  0  0  0  0  0  0  0
   -1.7321    0.0000    0.0000 N   0  0  0  0  0  0  0  0  0  0  0  0
    2.3660    6.0000    0.0000 H   0  0  0  0  0  0  0  0  0  0  0  0
   -0.6340    6.0000    0.0000 H   0  0  0  0  0  0  0  0  0  0  0  0
    2.3660    4.5000    0.0000 H   0  0  0  0  0  0  0  0  0  0  0  0
   -0.6340    4.5000    0.0000 H   0  0  0  0  0  0  0  0  0  0  0  0
    2.1651    2.2500    0.0000 H   0  0  0  0  0  0  0  0  0  0  0  0
   -1.7321    3.0000    0.0000 H   0  0  0  0  0  0  0  0  0  0  0  0
    1.8302    1.1491    0.0000 H   0  0  0  0  0  0  0  0  0  0  0  0
    1.8302   -1.1491    0.0000 H   0  0  0  0  0  0  0  0  0  0  0  0
   -0.4330   -2.2500    0.0000 H   0  0  0  0  0  0  0  0  0  0  0  0
   -3.2321    0.0000    0.0000 H   0  0  0  0  0  0  0  0  0  0  0  0
  1  2  1  0
  2  3  1  0
  2  4  1  0
  2  5  1  0
  5  6  1  0
  6  7  1  0
  7  8  2  3
  9  8  1  1
  9 10  1  0
 10 11  1  0
 11 12  1  0
 11  9  1  0
 12  9  1  0
  5 13  1  0
  5 14  1  0
  6 15  1  0
  6 16  1  0
  7 17  1  0
  8 18  1  0
 10 19  1  0
 10 20  1  0
 11 21  1  1
 12 22  1  0
M  END
$$$$
