
     RDKit          2D

 24 24  0  0  0  0  0  0  0  0999 V2000
    3.5260    1.2990    0.0000 C   0  0  0  0  0  0  0  0  0  0  0  0
    2.7760    0.0000    0.0000 N   0  0  0  0  0  0  0  0  0  0  0  0
    1.2760    0.0000    0.0000 N   0  0  0  0  0  0  0  0  0  0  0  0
    0.3943    1.2135    0.0000 C   0  0  0  0  0  0  0  0  0  0  0  0
   -1.0323    0.7500    0.0000 N   0  0  0  0  0  2  0  0  0  0  0  0
   -1.0323   -0.7500    0.0000 C   0  0  0  0  0  0  0  0  0  0  0  0
   -2.5241   -0.5932    0.0000 N   0  0  0  0  0  2  0  0  0  0  0  0
   -1.3442   -2.2172    0.0000 C   0  0  0  0  0  0  0  0  0  0  0  0
   -1.6560   -3.6844    0.0000 N   0  0  0  0  0  0  0  0  0  0  0  0
   -2.8114   -1.9054    0.0000 O   0  0  0  0  0  0  0  0  0  0  0  0
    0.3943   -1.2135    0.0000 C   0  0  0  0  0  0  0  0  0  0  0  0
    4.2760    2.5981    0.0000 H   0  0  0  0  0  0  0  0  0  0  0  0
    2.4478    2.1115    0.0000 H   0  0  0  0  0  0  0  0  0  0  0  0
    4.8250    0.5490    0.0000 H   0  0  0  0  0  0  0  0  0  0  0  0
    3.5260   -1.2990    0.0000 H   0  0  0  0  0  0  0  0  0  0  0  0
   -0.2158    2.5838    0.0000 H   0  0  0  0  0  0  0  0  0  0  0  0
    1.4724    2.0260    0.0000 H   0  0  0  0  0  0  0  0  0  0  0  0
   -3.1342    0.7771    0.0000 H   0  0  0  0  0  0  0  0  0  0  0  0
   -0.5904   -2.4768    0.0000 H   0  0  0  0  0  0  0  0  0  0  0  0
   -3.0826   -4.1480    0.0000 H   0  0  0  0  0  0  0  0  0  0  0  0
   -0.5413   -4.6881    0.0000 H   0  0  0  0  0  0  0  0  0  0  0  0
   -3.8151   -3.0201    0.0000 H   0  0  0  0  0  0  0  0  0  0  0  0
    1.6933   -1.9635    0.0000 H   0  0  0  0  0  0  0  0  0  0  0  0
    0.1613   -1.9759    0.0000 H   0  0  0  0  0  0  0  0  0  0  0  0
  1  2  1  0
  2  3  1  0
  3  4  1  0
  4  5  1  0
  5  6  1  0
  6  7  1  0
  6  8  1  0
  8  9  1  0
  8 10  1  0
  6 11  1  0
 11  3  1  0
  1 12  1  0
  1 13  1  0
  1 14  1  0
  2 15  1  0
  4 16  1  0
  4 17  1  0
  7 18  1  0
  8 19  1  0
  9 20  1  0
  9 21  1  0
 10 22  1  0
 11 23  1  0
 11 24  1  0
M  RAD  2   5   2   7   2
M  END
$$$$
