
     RDKit          2D

100104  0  0  0  0  0  0  0  0999 V2000
   -9.5200    5.5233    0.0000 C   0  0  0  0  0  0  0  0  0  0  0  0
   -8.9720    4.1269    0.0000 C   0  0  0  0  0  0  0  0  0  0  0  0
   -9.9073    2.9542    0.0000 C   0  0  0  0  0  0  0  0  0  0  0  0
  -10.8425    1.7814    0.0000 O   0  0  0  0  0  0  0  0  0  0  0  0
   -7.4888    3.9034    0.0000 C   0  0  0  0  0  0  0  0  0  0  0  0
   -6.0055    3.6798    0.0000 C   0  0  0  0  0  0  0  0  0  0  0  0
   -6.7555    2.3808    0.0000 C   0  0  0  0  0  0  0  0  0  0  0  0
   -6.8676    0.8850    0.0000 C   0  0  0  0  0  0  0  0  0  0  0  0
   -6.3196   -0.5113    0.0000 C   0  0  0  0  0  0  0  0  0  0  0  0
   -5.2200   -1.5316    0.0000 C   0  0  0  0  0  0  0  0  0  0  0  0
   -3.7867   -1.9737    0.0000 C   0  0  0  0  0  0  0  0  0  0  0  0
   -2.3034   -1.7502    0.0000 C   0  0  0  0  0  0  0  0  0  0  0  0
   -1.0641   -0.9052    0.0000 C   0  0  0  0  0  0  0  0  0  0  0  0
   -0.3141    0.3938    0.0000 C   0  0  0  0  0  0  0  0  0  0  0  0
    1.0547   -0.2197    0.0000 O   0  0  0  0  0  0  0  0  0  0  0  0
   -0.2020    1.8897    0.0000 C   0  0  0  0  0  0  0  0  0  0  0  0
   -0.7500    3.2860    0.0000 C   0  0  0  0  0  0  0  0  0  0  0  0
   -0.2020    4.6823    0.0000 C   0  0  0  0  0  0  0  0  0  0  0  0
    0.3460    6.0786    0.0000 O   0  0  0  0  0  0  0  0  0  0  0  0
    1.1943    4.1343    0.0000 C   0  0  0  0  0  0  0  0  0  0  0  0
    2.5906    3.5863    0.0000 C   0  0  0  0  0  0  0  0  0  0  0  0
    3.1386    4.9826    0.0000 C   0  0  0  0  0  0  0  0  0  0  0  0
    4.3455    4.0918    0.0000 C   0  0  0  0  0  0  0  0  0  0  0  0
    5.8288    4.3154    0.0000 C   0  0  0  0  0  0  0  0  0  0  0  0
    6.7195    5.5223    0.0000 C   0  0  0  0  0  0  0  0  0  0  0  0
    6.4960    7.0055    0.0000 C   0  0  0  0  0  0  0  0  0  0  0  0
    5.2891    7.8963    0.0000 C   0  0  0  0  0  0  0  0  0  0  0  0
    6.4618    8.8315    0.0000 C   0  0  0  0  0  0  0  0  0  0  0  0
    7.8581    8.2835    0.0000 C   0  0  0  0  0  0  0  0  0  0  0  0
    9.0309    9.2187    0.0000 C   0  0  0  0  0  0  0  0  0  0  0  0
    8.8073   10.7020    0.0000 C   0  0  0  0  0  0  0  0  0  0  0  0
    9.9800   11.6372    0.0000 C   0  0  0  0  0  0  0  0  0  0  0  0
    7.4110   11.2500    0.0000 C   0  0  0  0  0  0  0  0  0  0  0  0
    6.2382   10.3148    0.0000 C   0  0  0  0  0  0  0  0  0  0  0  0
    3.8058    7.6727    0.0000 C   0  0  0  0  0  0  0  0  0  0  0  0
    2.9151    6.4658    0.0000 C   0  0  0  0  0  0  0  0  0  0  0  0
    2.0426    2.1899    0.0000 C   0  0  0  0  0  0  0  0  0  0  0  0
    0.5724    2.4872    0.0000 C   0  0  0  0  0  0  0  0  0  0  0  0
   -0.4202    1.3625    0.0000 C   0  0  0  0  0  0  0  0  0  0  0  0
    1.0501    1.0653    0.0000 C   0  0  0  0  0  0  0  0  0  0  0  0
   -1.8496    4.3062    0.0000 O   0  0  0  0  0  0  0  0  0  0  0  0
   -3.2829    4.7484    0.0000 N   0  0  0  0  0  0  0  0  0  0  0  0
   -4.7662    4.5248    0.0000 C   0  0  0  0  0  0  0  0  0  0  0  0
  -11.0033    5.7468    0.0000 H   0  0  0  0  0  0  0  0  0  0  0  0
   -8.5848    6.6960    0.0000 H   0  0  0  0  0  0  0  0  0  0  0  0
   -8.9957    1.7630    0.0000 H   0  0  0  0  0  0  0  0  0  0  0  0
  -11.0800    3.8894    0.0000 H   0  0  0  0  0  0  0  0  0  0  0  0
  -12.3257    2.0050    0.0000 H   0  0  0  0  0  0  0  0  0  0  0  0
   -7.8915    2.4584    0.0000 H   0  0  0  0  0  0  0  0  0  0  0  0
   -7.2652    5.3866    0.0000 H   0  0  0  0  0  0  0  0  0  0  0  0
   -6.5151    5.0906    0.0000 H   0  0  0  0  0  0  0  0  0  0  0  0
   -7.9468    3.2924    0.0000 H   0  0  0  0  0  0  0  0  0  0  0  0
   -8.1243    1.7672    0.0000 H   0  0  0  0  0  0  0  0  0  0  0  0
   -8.3364    1.1894    0.0000 H   0  0  0  0  0  0  0  0  0  0  0  0
   -7.9672   -0.1353    0.0000 H   0  0  0  0  0  0  0  0  0  0  0  0
   -7.5590   -1.3563    0.0000 H   0  0  0  0  0  0  0  0  0  0  0  0
   -5.9700   -2.8306    0.0000 H   0  0  0  0  0  0  0  0  0  0  0  0
   -4.7219   -3.1465    0.0000 H   0  0  0  0  0  0  0  0  0  0  0  0
   -3.2006   -3.3545    0.0000 H   0  0  0  0  0  0  0  0  0  0  0  0
   -2.4565   -3.2423    0.0000 H   0  0  0  0  0  0  0  0  0  0  0  0
   -1.1763   -2.7399    0.0000 H   0  0  0  0  0  0  0  0  0  0  0  0
   -0.5545   -2.3160    0.0000 H   0  0  0  0  0  0  0  0  0  0  0  0
    0.4192   -1.1288    0.0000 H   0  0  0  0  0  0  0  0  0  0  0  0
    0.9518    0.9312    0.0000 H   0  0  0  0  0  0  0  0  0  0  0  0
    0.6180    3.1457    0.0000 H   0  0  0  0  0  0  0  0  0  0  0  0
    0.7388    3.4688    0.0000 H   0  0  0  0  0  0  0  0  0  0  0  0
   -1.5983    5.2303    0.0000 H   0  0  0  0  0  0  0  0  0  0  0  0
   -0.5892    7.2513    0.0000 H   0  0  0  0  0  0  0  0  0  0  0  0
    1.3882    5.6217    0.0000 H   0  0  0  0  0  0  0  0  0  0  0  0
    0.3247    2.9121    0.0000 H   0  0  0  0  0  0  0  0  0  0  0  0
    3.9097    2.8721    0.0000 H   0  0  0  0  0  0  0  0  0  0  0  0
    1.6481    5.1505    0.0000 H   0  0  0  0  0  0  0  0  0  0  0  0
    4.7733    2.6541    0.0000 H   0  0  0  0  0  0  0  0  0  0  0  0
    3.5859    2.7984    0.0000 H   0  0  0  0  0  0  0  0  0  0  0  0
    7.1479    3.6013    0.0000 H   0  0  0  0  0  0  0  0  0  0  0  0
    5.8438    2.8155    0.0000 H   0  0  0  0  0  0  0  0  0  0  0  0
    8.1986    5.7716    0.0000 H   0  0  0  0  0  0  0  0  0  0  0  0
    7.7907    4.4723    0.0000 H   0  0  0  0  0  0  0  0  0  0  0  0
    7.3656    8.2278    0.0000 H   0  0  0  0  0  0  0  0  0  0  0  0
    7.9865    6.8376    0.0000 H   0  0  0  0  0  0  0  0  0  0  0  0
    4.8613    9.3340    0.0000 H   0  0  0  0  0  0  0  0  0  0  0  0
    8.4339    6.8984    0.0000 H   0  0  0  0  0  0  0  0  0  0  0  0
   10.4272    8.6707    0.0000 H   0  0  0  0  0  0  0  0  0  0  0  0
    9.0448   12.8100    0.0000 H   0  0  0  0  0  0  0  0  0  0  0  0
   10.9153   10.4645    0.0000 H   0  0  0  0  0  0  0  0  0  0  0  0
   11.1528   12.5724    0.0000 H   0  0  0  0  0  0  0  0  0  0  0  0
    7.1874   12.7332    0.0000 H   0  0  0  0  0  0  0  0  0  0  0  0
    4.8419   10.8628    0.0000 H   0  0  0  0  0  0  0  0  0  0  0  0
    2.4867    8.3868    0.0000 H   0  0  0  0  0  0  0  0  0  0  0  0
    3.7908    9.1726    0.0000 H   0  0  0  0  0  0  0  0  0  0  0  0
    1.4359    6.2165    0.0000 H   0  0  0  0  0  0  0  0  0  0  0  0
    1.8439    7.5158    0.0000 H   0  0  0  0  0  0  0  0  0  0  0  0
    3.3226    1.4078    0.0000 H   0  0  0  0  0  0  0  0  0  0  0  0
    0.2715    3.9567    0.0000 H   0  0  0  0  0  0  0  0  0  0  0  0
   -1.7001    2.1446    0.0000 H   0  0  0  0  0  0  0  0  0  0  0  0
   -1.2898    0.1403    0.0000 H   0  0  0  0  0  0  0  0  0  0  0  0
    1.6976   -0.2878    0.0000 H   0  0  0  0  0  0  0  0  0  0  0  0
   -3.1708    6.2442    0.0000 H   0  0  0  0  0  0  0  0  0  0  0  0
   -4.4324    5.9872    0.0000 H   0  0  0  0  0  0  0  0  0  0  0  0
   -5.8933    5.5145    0.0000 H   0  0  0  0  0  0  0  0  0  0  0  0
  1  2  2  0
  2  3  1  0
  3  4  1  0
  2  5  1  0
  5  6  1  0
  6  7  1  0
  7  8  1  0
  8  9  1  0
  9 10  2  0
 10 11  1  0
 11 12  1  0
 12 13  1  0
 13 14  1  0
 14 15  2  0
 14 16  1  0
 16 17  1  0
 17 18  1  0
 18 19  1  0
 18 20  1  0
 20 21  1  0
 21 22  1  0
 22 23  1  0
 23 24  1  0
 24 25  1  0
 25 26  1  0
 26 27  1  0
 27 28  1  0
 28 29  2  0
 29 30  1  0
 30 31  2  0
 31 32  1  0
 31 33  1  0
 33 34  2  0
 27 35  1  0
 35 36  1  0
 21 37  1  0
 37 38  1  0
 38 39  1  0
 39 40  1  0
 17 41  1  0
 41 42  1  0
 42 43  1  0
 43  6  1  0
 36 22  1  0
 40 37  1  0
 34 28  1  0
 40 38  1  0
  1 44  1  0
  1 45  1  0
  3 46  1  0
  3 47  1  0
  4 48  1  0
  5 49  1  0
  5 50  1  0
  6 51  1  0
  7 52  1  0
  7 53  1  0
  8 54  1  0
  8 55  1  0
  9 56  1  0
 10 57  1  0
 11 58  1  0
 11 59  1  0
 12 60  1  0
 12 61  1  0
 13 62  1  0
 13 63  1  0
 16 64  1  0
 16 65  1  0
 17 66  1  0
 18 67  1  0
 19 68  1  0
 20 69  1  0
 20 70  1  0
 21 71  1  0
 22 72  1  0
 23 73  1  0
 23 74  1  0
 24 75  1  0
 24 76  1  0
 25 77  1  0
 25 78  1  0
 26 79  1  0
 26 80  1  0
 27 81  1  0
 29 82  1  0
 30 83  1  0
 32 84  1  0
 32 85  1  0
 32 86  1  0
 33 87  1  0
 34 88  1  0
 35 89  1  0
 35 90  1  0
 36 91  1  0
 36 92  1  0
 37 93  1  0
 38 94  1  0
 39 95  1  0
 39 96  1  0
 40 97  1  0
 42 98  1  0
 43 99  1  0
 43100  1  0
M  END
$$$$
