
     RDKit          2D

 57 60  0  0  0  0  0  0  0  0999 V2000
   -3.0593    1.9747    0.0000 C   0  0  0  0  0  0  0  0  0  0  0  0
   -1.5821    1.7142    0.0000 C   0  0  0  0  0  0  0  0  0  0  0  0
   -1.5821    0.2142    0.0000 C   0  0  0  0  0  0  0  0  0  0  0  0
   -0.2830    0.9642    0.0000 C   0  0  0  0  0  0  0  0  0  0  0  0
    0.6811    2.1132    0.0000 C   0  0  0  0  0  0  0  0  0  0  0  0
    1.6453    3.2623    0.0000 C   0  0  0  0  0  0  0  0  0  0  0  0
    2.6095    4.4114    0.0000 C   0  0  0  0  0  0  0  0  0  0  0  0
    0.4963    4.2265    0.0000 C   0  0  0  0  0  0  0  0  0  0  0  0
   -0.6528    5.1907    0.0000 C   0  0  0  0  0  0  0  0  0  0  0  0
   -1.8019    6.1549    0.0000 N   0  0  0  0  0  0  0  0  0  0  0  0
   -1.5414    7.6321    0.0000 N   0  0  0  0  0  0  0  0  0  0  0  0
    1.8302    1.1491    0.0000 C   0  0  0  0  0  0  0  0  0  0  0  0
    2.9793    0.1849    0.0000 C   0  0  0  0  0  0  0  0  0  0  0  0
    3.9435    1.3340    0.0000 C   0  0  0  0  0  0  0  0  0  0  0  0
    5.0925    0.3698    0.0000 C   0  0  0  0  0  0  0  0  0  0  0  0
    4.1283   -0.7793    0.0000 C   0  0  0  0  0  0  0  0  0  0  0  0
    0.8660    0.0000    0.0000 C   0  0  0  0  0  0  0  0  0  0  0  0
    1.8302   -1.1491    0.0000 C   0  0  0  0  0  0  0  0  0  0  0  0
    2.5344   -2.4735    0.0000 C   0  0  0  0  0  0  0  0  0  0  0  0
    1.4924   -3.5525    0.0000 N   0  0  0  0  0  0  0  0  0  0  0  0
    0.1442   -2.8949    0.0000 C   0  0  0  0  0  0  0  0  0  0  0  0
    0.3530   -1.4095    0.0000 C   0  0  0  0  0  0  0  0  0  0  0  0
   -4.5365    2.2351    0.0000 H   0  0  0  0  0  0  0  0  0  0  0  0
   -2.7988    3.4519    0.0000 H   0  0  0  0  0  0  0  0  0  0  0  0
   -3.4540    0.6837    0.0000 H   0  0  0  0  0  0  0  0  0  0  0  0
   -1.4254    3.2060    0.0000 H   0  0  0  0  0  0  0  0  0  0  0  0
   -1.2447   -1.2474    0.0000 H   0  0  0  0  0  0  0  0  0  0  0  0
   -2.8731   -0.1806    0.0000 H   0  0  0  0  0  0  0  0  0  0  0  0
    0.0664    0.2477    0.0000 H   0  0  0  0  0  0  0  0  0  0  0  0
   -0.4679    3.0774    0.0000 H   0  0  0  0  0  0  0  0  0  0  0  0
    0.2971    3.9198    0.0000 H   0  0  0  0  0  0  0  0  0  0  0  0
    3.5737    5.5604    0.0000 H   0  0  0  0  0  0  0  0  0  0  0  0
    1.5865    5.5084    0.0000 H   0  0  0  0  0  0  0  0  0  0  0  0
    3.7586    3.4472    0.0000 H   0  0  0  0  0  0  0  0  0  0  0  0
    1.3132    5.4845    0.0000 H   0  0  0  0  0  0  0  0  0  0  0  0
   -0.7173    3.3449    0.0000 H   0  0  0  0  0  0  0  0  0  0  0  0
    0.3114    6.3397    0.0000 H   0  0  0  0  0  0  0  0  0  0  0  0
   -1.6170    4.0416    0.0000 H   0  0  0  0  0  0  0  0  0  0  0  0
   -3.2114    5.6418    0.0000 H   0  0  0  0  0  0  0  0  0  0  0  0
   -2.6905    8.5963    0.0000 H   0  0  0  0  0  0  0  0  0  0  0  0
   -0.1319    8.1451    0.0000 H   0  0  0  0  0  0  0  0  0  0  0  0
    2.6471    2.4071    0.0000 H   0  0  0  0  0  0  0  0  0  0  0  0
    3.6368    1.5331    0.0000 H   0  0  0  0  0  0  0  0  0  0  0  0
    4.9076    2.4830    0.0000 H   0  0  0  0  0  0  0  0  0  0  0  0
    2.9205    2.4310    0.0000 H   0  0  0  0  0  0  0  0  0  0  0  0
    6.2416   -0.5944    0.0000 H   0  0  0  0  0  0  0  0  0  0  0  0
    6.0567    1.5188    0.0000 H   0  0  0  0  0  0  0  0  0  0  0  0
    3.3114   -2.0373    0.0000 H   0  0  0  0  0  0  0  0  0  0  0  0
    5.2774   -1.7435    0.0000 H   0  0  0  0  0  0  0  0  0  0  0  0
   -0.5759    0.4134    0.0000 H   0  0  0  0  0  0  0  0  0  0  0  0
    3.2398   -0.6361    0.0000 H   0  0  0  0  0  0  0  0  0  0  0  0
    3.8709   -1.7925    0.0000 H   0  0  0  0  0  0  0  0  0  0  0  0
    3.4986   -3.6226    0.0000 H   0  0  0  0  0  0  0  0  0  0  0  0
    1.7529   -5.0297    0.0000 H   0  0  0  0  0  0  0  0  0  0  0  0
   -0.3688   -4.3045    0.0000 H   0  0  0  0  0  0  0  0  0  0  0  0
   -1.3112   -2.5321    0.0000 H   0  0  0  0  0  0  0  0  0  0  0  0
   -1.1358   -1.2268    0.0000 H   0  0  0  0  0  0  0  0  0  0  0  0
  1  2  1  0
  2  3  1  0
  3  4  1  0
  4  5  1  0
  5  6  1  0
  6  7  1  0
  6  8  1  0
  8  9  1  0
  9 10  1  0
 10 11  1  0
  5 12  1  0
 12 13  1  0
 13 14  1  0
 14 15  1  0
 15 16  1  0
 12 17  1  0
 17 18  1  0
 18 19  1  0
 19 20  1  0
 20 21  1  0
 21 22  1  0
  4  2  1  0
 16 13  1  0
 22 17  1  0
 22 18  1  0
  1 23  1  0
  1 24  1  0
  1 25  1  0
  2 26  1  0
  3 27  1  0
  3 28  1  0
  4 29  1  0
  5 30  1  0
  6 31  1  0
  7 32  1  0
  7 33  1  0
  7 34  1  0
  8 35  1  0
  8 36  1  0
  9 37  1  0
  9 38  1  0
 10 39  1  0
 11 40  1  0
 11 41  1  0
 12 42  1  0
 13 43  1  0
 14 44  1  0
 14 45  1  0
 15 46  1  0
 15 47  1  0
 16 48  1  0
 16 49  1  0
 17 50  1  0
 18 51  1  0
 19 52  1  0
 19 53  1  0
 20 54  1  0
 21 55  1  0
 21 56  1  0
 22 57  1  0
M  END
$$$$
