
     RDKit          2D

 47 51  0  0  0  0  0  0  0  0999 V2000
    7.2260    1.5167    0.0000 C   0  0  0  0  0  0  0  0  0  0  0  0
    5.7488    1.7772    0.0000 C   0  0  0  0  0  0  0  0  0  0  0  0
    4.2716    2.0377    0.0000 C   0  0  0  0  0  0  0  0  0  0  0  0
    2.7944    2.2981    0.0000 N   0  0  0  0  0  0  0  0  0  0  0  0
    1.8302    1.1491    0.0000 C   0  0  0  0  0  0  0  0  0  0  0  0
    0.8660    0.0000    0.0000 C   0  0  0  0  0  0  0  0  0  0  0  0
   -0.4330    0.7500    0.0000 C   0  0  0  0  0  0  0  0  0  0  0  0
   -1.7321    0.0000    0.0000 C   0  0  0  0  0  0  0  0  0  0  0  0
   -2.6962   -1.1491    0.0000 C   0  0  0  0  0  0  0  0  0  0  0  0
   -3.6604   -2.2981    0.0000 C   0  0  0  0  0  0  0  0  0  0  0  0
   -4.6246   -3.4472    0.0000 C   0  0  0  0  0  0  0  0  0  0  0  0
   -3.6604   -4.5963    0.0000 C   0  0  0  0  0  0  0  0  0  0  0  0
   -4.1734   -6.0058    0.0000 C   0  0  0  0  0  0  0  0  0  0  0  0
   -2.8744   -6.7558    0.0000 C   0  0  0  0  0  0  0  0  0  0  0  0
   -1.5754   -7.5058    0.0000 C   0  0  0  0  0  0  0  0  0  0  0  0
   -0.6112   -8.6549    0.0000 O   0  0  0  0  0  0  0  0  0  0  0  0
   -2.0884   -8.9153    0.0000 C   0  0  0  0  0  0  0  0  0  0  0  0
   -2.0884  -10.4153    0.0000 O   0  0  0  0  0  0  0  0  0  0  0  0
   -5.1376   -4.8567    0.0000 C   0  0  0  0  0  0  0  0  0  0  0  0
   -0.4330   -0.7500    0.0000 C   0  0  0  0  0  0  0  0  0  0  0  0
    8.7032    1.2562    0.0000 H   0  0  0  0  0  0  0  0  0  0  0  0
    7.4865    2.9939    0.0000 H   0  0  0  0  0  0  0  0  0  0  0  0
    6.9656    0.0395    0.0000 H   0  0  0  0  0  0  0  0  0  0  0  0
    6.0093    3.2544    0.0000 H   0  0  0  0  0  0  0  0  0  0  0  0
    5.4883    0.3000    0.0000 H   0  0  0  0  0  0  0  0  0  0  0  0
    4.0111    0.5604    0.0000 H   0  0  0  0  0  0  0  0  0  0  0  0
    4.5321    3.5149    0.0000 H   0  0  0  0  0  0  0  0  0  0  0  0
    2.2814    3.7077    0.0000 H   0  0  0  0  0  0  0  0  0  0  0  0
    2.9793    0.1849    0.0000 H   0  0  0  0  0  0  0  0  0  0  0  0
    0.6811    2.1132    0.0000 H   0  0  0  0  0  0  0  0  0  0  0  0
    1.8302   -1.1491    0.0000 H   0  0  0  0  0  0  0  0  0  0  0  0
   -0.4330    2.2500    0.0000 H   0  0  0  0  0  0  0  0  0  0  0  0
   -2.6962    1.1491    0.0000 H   0  0  0  0  0  0  0  0  0  0  0  0
   -3.8453   -0.1849    0.0000 H   0  0  0  0  0  0  0  0  0  0  0  0
   -1.5472   -2.1132    0.0000 H   0  0  0  0  0  0  0  0  0  0  0  0
   -4.8095   -1.3340    0.0000 H   0  0  0  0  0  0  0  0  0  0  0  0
   -2.5113   -3.2623    0.0000 H   0  0  0  0  0  0  0  0  0  0  0  0
   -5.9236   -2.6972    0.0000 H   0  0  0  0  0  0  0  0  0  0  0  0
   -2.1832   -4.3358    0.0000 H   0  0  0  0  0  0  0  0  0  0  0  0
   -5.1376   -7.1549    0.0000 H   0  0  0  0  0  0  0  0  0  0  0  0
   -3.6869   -7.8339    0.0000 H   0  0  0  0  0  0  0  0  0  0  0  0
   -2.1244   -5.4568    0.0000 H   0  0  0  0  0  0  0  0  0  0  0  0
   -0.6112   -6.3567    0.0000 H   0  0  0  0  0  0  0  0  0  0  0  0
   -3.4365   -8.8447    0.0000 H   0  0  0  0  0  0  0  0  0  0  0  0
   -3.3874  -11.1653    0.0000 H   0  0  0  0  0  0  0  0  0  0  0  0
   -6.6148   -5.1172    0.0000 H   0  0  0  0  0  0  0  0  0  0  0  0
   -0.4330   -2.2500    0.0000 H   0  0  0  0  0  0  0  0  0  0  0  0
  1  2  1  0
  2  3  1  0
  3  4  1  0
  4  5  1  0
  5  6  1  0
  6  7  1  0
  7  8  1  0
  8  9  1  0
  9 10  1  0
 10 11  1  0
 11 12  1  0
 12 13  1  0
 13 14  1  0
 14 15  1  0
 15 16  1  0
 16 17  1  0
 17 18  1  0
 13 19  1  0
  8 20  1  0
 20  6  1  0
 20  7  1  0
 19 11  1  0
 19 12  1  0
 17 15  1  0
  1 21  1  0
  1 22  1  0
  1 23  1  0
  2 24  1  0
  2 25  1  0
  3 26  1  0
  3 27  1  0
  4 28  1  0
  5 29  1  0
  5 30  1  0
  6 31  1  1
  7 32  1  1
  8 33  1  6
  9 34  1  0
  9 35  1  0
 10 36  1  0
 10 37  1  0
 11 38  1  1
 12 39  1  6
 13 40  1  6
 14 41  1  0
 14 42  1  0
 15 43  1  1
 17 44  1  6
 18 45  1  0
 19 46  1  6
 20 47  1  1
M  END
$$$$
