
     RDKit          2D

109116  0  0  0  0  0  0  0  0999 V2000
  -11.3329   11.4284    0.0000 C   0  0  0  0  0  0  0  0  0  0  0  0
  -10.0339   12.1784    0.0000 C   0  0  0  0  0  0  0  0  0  0  0  0
   -8.7348   11.4284    0.0000 C   0  0  0  0  0  0  0  0  0  0  0  0
   -7.4358   10.6784    0.0000 C   0  0  0  0  0  0  0  0  0  0  0  0
   -6.1368    9.9284    0.0000 C   0  0  0  0  0  0  0  0  0  0  0  0
   -4.8377    9.1784    0.0000 C   0  0  0  0  0  0  0  0  0  0  0  0
   -3.5387    8.4284    0.0000 C   0  0  0  0  0  0  0  0  0  0  0  0
   -4.0517    7.0189    0.0000 C   0  0  0  0  0  0  0  0  0  0  0  0
   -2.5745    9.5775    0.0000 C   0  0  0  0  0  0  0  0  0  0  0  0
   -2.0615    8.1679    0.0000 C   0  0  0  0  0  0  0  0  0  0  0  0
   -0.5843    8.4284    0.0000 C   0  0  0  0  0  0  0  0  0  0  0  0
    0.8929    8.6889    0.0000 N   0  0  0  0  0  0  0  0  0  0  0  0
    2.0420    9.6531    0.0000 C   0  0  0  0  0  0  0  0  0  0  0  0
    3.4515    9.1400    0.0000 N   0  0  0  0  0  0  0  0  0  0  0  0
    2.3025    8.1759    0.0000 C   0  0  0  0  0  0  0  0  0  0  0  0
    2.5630    6.6986    0.0000 C   0  0  0  0  0  0  0  0  0  0  0  0
    3.9725    6.1856    0.0000 N   0  0  0  0  0  0  0  0  0  0  0  0
   -2.0615    6.6679    0.0000 C   0  0  0  0  0  0  0  0  0  0  0  0
   -0.5843    6.4075    0.0000 C   0  0  0  0  0  0  0  0  0  0  0  0
   -0.0712    4.9979    0.0000 C   0  0  0  0  0  0  0  0  0  0  0  0
   -0.0712    3.4979    0.0000 C   0  0  0  0  0  0  0  0  0  0  0  0
    1.3776    3.8862    0.0000 C   0  0  0  0  0  0  0  0  0  0  0  0
    2.6767    3.1362    0.0000 C   0  0  0  0  0  0  0  0  0  0  0  0
    3.0649    1.6873    0.0000 C   0  0  0  0  0  0  0  0  0  0  0  0
    2.3149    0.3882    0.0000 C   0  0  0  0  0  0  0  0  0  0  0  0
    0.8660    0.0000    0.0000 C   0  0  0  0  0  0  0  0  0  0  0  0
    1.4401   -1.3858    0.0000 O   0  0  0  0  0  0  0  0  0  0  0  0
    0.5269   -2.5758    0.0000 C   0  0  0  0  0  0  0  0  0  0  0  0
   -0.4330    0.7500    0.0000 C   0  0  0  0  0  0  0  0  0  0  0  0
   -0.8212    2.1989    0.0000 C   0  0  0  0  0  0  0  0  0  0  0  0
   -0.4330   -0.7500    0.0000 C   0  0  0  0  0  0  0  0  0  0  0  0
   -1.1830   -2.0490    0.0000 C   0  0  0  0  0  0  0  0  0  0  0  0
   -1.9330   -3.3481    0.0000 C   0  0  0  0  0  0  0  0  0  0  0  0
   -2.6830   -4.6471    0.0000 C   0  0  0  0  0  0  0  0  0  0  0  0
   -1.5485    5.2584    0.0000 C   0  0  0  0  0  0  0  0  0  0  0  0
  -10.0339   13.6784    0.0000 C   0  0  0  0  0  0  0  0  0  0  0  0
  -10.0339   15.1784    0.0000 C   0  0  0  0  0  0  0  0  0  0  0  0
  -11.5339   13.6784    0.0000 C   0  0  0  0  0  0  0  0  0  0  0  0
  -13.0339   13.6784    0.0000 C   0  0  0  0  0  0  0  0  0  0  0  0
  -14.5339   13.6784    0.0000 C   0  0  0  0  0  0  0  0  0  0  0  0
  -16.0339   13.6784    0.0000 C   0  0  0  0  0  0  0  0  0  0  0  0
  -14.5339   15.1784    0.0000 C   0  0  0  0  0  0  0  0  0  0  0  0
  -14.5339   16.6784    0.0000 C   0  0  0  0  0  0  0  0  0  0  0  0
  -14.5339   18.1784    0.0000 C   0  0  0  0  0  0  0  0  0  0  0  0
  -12.7137   12.0145    0.0000 H   0  0  0  0  0  0  0  0  0  0  0  0
  -11.3329    9.9284    0.0000 H   0  0  0  0  0  0  0  0  0  0  0  0
   -9.4848   10.1294    0.0000 H   0  0  0  0  0  0  0  0  0  0  0  0
   -7.9848   12.7274    0.0000 H   0  0  0  0  0  0  0  0  0  0  0  0
   -6.6858   11.9774    0.0000 H   0  0  0  0  0  0  0  0  0  0  0  0
   -8.1858    9.3794    0.0000 H   0  0  0  0  0  0  0  0  0  0  0  0
   -6.8868    8.6294    0.0000 H   0  0  0  0  0  0  0  0  0  0  0  0
   -5.3868   11.2274    0.0000 H   0  0  0  0  0  0  0  0  0  0  0  0
   -4.3103   10.4211    0.0000 H   0  0  0  0  0  0  0  0  0  0  0  0
   -5.5690    8.2081    0.0000 H   0  0  0  0  0  0  0  0  0  0  0  0
   -4.5648    5.6093    0.0000 H   0  0  0  0  0  0  0  0  0  0  0  0
   -5.2356    7.2922    0.0000 H   0  0  0  0  0  0  0  0  0  0  0  0
   -3.4501    6.4958    0.0000 H   0  0  0  0  0  0  0  0  0  0  0  0
   -1.4964   10.3900    0.0000 H   0  0  0  0  0  0  0  0  0  0  0  0
   -3.3097   10.7097    0.0000 H   0  0  0  0  0  0  0  0  0  0  0  0
   -0.6549    9.7766    0.0000 H   0  0  0  0  0  0  0  0  0  0  0  0
    0.0259    7.0581    0.0000 H   0  0  0  0  0  0  0  0  0  0  0  0
    1.7815   11.1303    0.0000 H   0  0  0  0  0  0  0  0  0  0  0  0
    4.9288    9.4005    0.0000 H   0  0  0  0  0  0  0  0  0  0  0  0
    1.5400    5.6016    0.0000 H   0  0  0  0  0  0  0  0  0  0  0  0
    4.2330    4.7084    0.0000 H   0  0  0  0  0  0  0  0  0  0  0  0
   -2.8238    6.4349    0.0000 H   0  0  0  0  0  0  0  0  0  0  0  0
    0.3799    7.5565    0.0000 H   0  0  0  0  0  0  0  0  0  0  0  0
    1.4060    5.2584    0.0000 H   0  0  0  0  0  0  0  0  0  0  0  0
   -1.5201    3.8862    0.0000 H   0  0  0  0  0  0  0  0  0  0  0  0
    2.3011    5.0682    0.0000 H   0  0  0  0  0  0  0  0  0  0  0  0
    1.1431    5.3677    0.0000 H   0  0  0  0  0  0  0  0  0  0  0  0
    4.1655    3.3190    0.0000 H   0  0  0  0  0  0  0  0  0  0  0  0
    3.2386    4.5269    0.0000 H   0  0  0  0  0  0  0  0  0  0  0  0
    4.2470    0.7638    0.0000 H   0  0  0  0  0  0  0  0  0  0  0  0
    4.4457    2.2733    0.0000 H   0  0  0  0  0  0  0  0  0  0  0  0
    2.3149   -1.1118    0.0000 H   0  0  0  0  0  0  0  0  0  0  0  0
    3.7057   -0.1737    0.0000 H   0  0  0  0  0  0  0  0  0  0  0  0
   -0.2344   -3.8683    0.0000 H   0  0  0  0  0  0  0  0  0  0  0  0
    1.7169   -3.4890    0.0000 H   0  0  0  0  0  0  0  0  0  0  0  0
   -0.8487   -1.9778    0.0000 H   0  0  0  0  0  0  0  0  0  0  0  0
   -1.9202    0.5542    0.0000 H   0  0  0  0  0  0  0  0  0  0  0  0
   -2.3084    2.3947    0.0000 H   0  0  0  0  0  0  0  0  0  0  0  0
   -2.4821   -1.2990    0.0000 H   0  0  0  0  0  0  0  0  0  0  0  0
   -0.1041   -3.0911    0.0000 H   0  0  0  0  0  0  0  0  0  0  0  0
   -3.2321   -2.5981    0.0000 H   0  0  0  0  0  0  0  0  0  0  0  0
   -0.7351   -4.2508    0.0000 H   0  0  0  0  0  0  0  0  0  0  0  0
   -3.4330   -5.9462    0.0000 H   0  0  0  0  0  0  0  0  0  0  0  0
   -3.9821   -3.8971    0.0000 H   0  0  0  0  0  0  0  0  0  0  0  0
   -1.3840   -5.3971    0.0000 H   0  0  0  0  0  0  0  0  0  0  0  0
   -2.5126    4.1093    0.0000 H   0  0  0  0  0  0  0  0  0  0  0  0
   -8.5339   13.6784    0.0000 H   0  0  0  0  0  0  0  0  0  0  0  0
  -10.0339   16.6784    0.0000 H   0  0  0  0  0  0  0  0  0  0  0  0
   -8.5339   15.1784    0.0000 H   0  0  0  0  0  0  0  0  0  0  0  0
  -11.5227   15.3613    0.0000 H   0  0  0  0  0  0  0  0  0  0  0  0
  -11.7167   15.1672    0.0000 H   0  0  0  0  0  0  0  0  0  0  0  0
  -11.8968   12.2230    0.0000 H   0  0  0  0  0  0  0  0  0  0  0  0
  -12.8510   15.1672    0.0000 H   0  0  0  0  0  0  0  0  0  0  0  0
  -13.2167   12.1896    0.0000 H   0  0  0  0  0  0  0  0  0  0  0  0
  -14.5339   12.1784    0.0000 H   0  0  0  0  0  0  0  0  0  0  0  0
  -17.5339   13.6784    0.0000 H   0  0  0  0  0  0  0  0  0  0  0  0
  -16.0339   12.1784    0.0000 H   0  0  0  0  0  0  0  0  0  0  0  0
  -16.2167   15.1672    0.0000 H   0  0  0  0  0  0  0  0  0  0  0  0
  -16.0227   15.3613    0.0000 H   0  0  0  0  0  0  0  0  0  0  0  0
  -13.0451   15.3613    0.0000 H   0  0  0  0  0  0  0  0  0  0  0  0
  -16.0339   16.6784    0.0000 H   0  0  0  0  0  0  0  0  0  0  0  0
  -13.0339   16.6784    0.0000 H   0  0  0  0  0  0  0  0  0  0  0  0
  -14.5339   19.6784    0.0000 H   0  0  0  0  0  0  0  0  0  0  0  0
  -13.0339   18.1784    0.0000 H   0  0  0  0  0  0  0  0  0  0  0  0
  -16.0339   18.1784    0.0000 H   0  0  0  0  0  0  0  0  0  0  0  0
  1  2  2  3
  2  3  1  0
  3  4  1  0
  4  5  1  0
  5  6  1  0
  6  7  1  0
  7  8  1  0
  7  9  1  0
  9 10  1  0
 10 11  1  0
 11 12  1  0
 12 13  1  0
 13 14  1  0
 14 15  1  0
 15 16  1  0
 16 17  2  3
 10 18  1  0
 18 19  1  0
 19 20  1  0
 20 21  1  0
 21 22  1  0
 22 23  1  0
 23 24  1  0
 24 25  1  0
 25 26  1  0
 26 27  1  0
 27 28  1  0
 26 29  1  0
 29 30  1  0
 30 31  1  0
 31 32  1  0
 32 33  1  0
 33 34  1  0
 20 35  1  0
  2 36  1  0
 36 37  1  0
 36 38  1  0
 38 39  1  0
 39 40  1  0
 40 41  1  0
 40 42  1  0
 42 43  1  0
 43 44  1  0
 10  7  1  0
 15 12  1  0
 35 18  1  0
 15 13  1  0
 35 19  1  0
 30 21  1  0
 31 26  1  0
 31 29  1  0
  1 45  1  0
  1 46  1  0
  3 47  1  0
  3 48  1  0
  4 49  1  0
  4 50  1  0
  5 51  1  0
  5 52  1  0
  6 53  1  0
  6 54  1  0
  8 55  1  0
  8 56  1  0
  8 57  1  0
  9 58  1  0
  9 59  1  0
 11 60  1  0
 11 61  1  0
 13 62  1  0
 14 63  1  0
 16 64  1  0
 17 65  1  0
 18 66  1  0
 19 67  1  0
 20 68  1  0
 21 69  1  0
 22 70  1  0
 22 71  1  0
 23 72  1  0
 23 73  1  0
 24 74  1  0
 24 75  1  0
 25 76  1  0
 25 77  1  0
 28 78  1  0
 28 79  1  0
 28 80  1  0
 29 81  1  0
 30 82  1  0
 32 83  1  0
 32 84  1  0
 33 85  1  0
 33 86  1  0
 34 87  1  0
 34 88  1  0
 34 89  1  0
 35 90  1  0
 36 91  1  0
 37 92  1  0
 37 93  1  0
 37 94  1  0
 38 95  1  0
 38 96  1  0
 39 97  1  0
 39 98  1  0
 40 99  1  0
 41100  1  0
 41101  1  0
 41102  1  0
 42103  1  0
 42104  1  0
 43105  1  0
 43106  1  0
 44107  1  0
 44108  1  0
 44109  1  0
M  END
$$$$
