
     RDKit          2D

 21 22  0  0  0  0  0  0  0  0999 V2000
   -3.8386   -1.2877    0.0000 Cl  0  0  0  0  0  0  0  0  0  0  0  0
   -4.3516    0.1219    0.0000 C   0  0  0  0  0  0  0  0  0  0  0  0
   -3.3874    1.2709    0.0000 C   0  0  0  0  0  0  0  0  0  0  0  0
   -1.9102    1.0105    0.0000 C   0  0  0  0  0  0  0  0  0  0  0  0
   -0.4330    0.7500    0.0000 C   0  0  0  0  0  0  0  0  0  0  0  0
    0.8660    0.0000    0.0000 C   0  0  0  0  0  0  0  0  0  0  0  0
   -0.4330   -0.7500    0.0000 O   0  0  0  0  0  0  0  0  0  0  0  0
   -5.8288    0.3824    0.0000 C   0  0  0  0  0  0  0  0  0  0  0  0
   -7.3060    0.1219    0.0000 C   0  0  0  0  0  0  0  0  0  0  0  0
   -6.3419   -1.0272    0.0000 C   0  0  0  0  0  0  0  0  0  0  0  0
   -3.9005    2.6805    0.0000 H   0  0  0  0  0  0  0  0  0  0  0  0
   -2.1707   -0.4667    0.0000 H   0  0  0  0  0  0  0  0  0  0  0  0
   -1.6498    2.4877    0.0000 H   0  0  0  0  0  0  0  0  0  0  0  0
    0.0800    2.1595    0.0000 H   0  0  0  0  0  0  0  0  0  0  0  0
    1.8302    1.1491    0.0000 H   0  0  0  0  0  0  0  0  0  0  0  0
    1.8302   -1.1491    0.0000 H   0  0  0  0  0  0  0  0  0  0  0  0
   -5.8288    1.8824    0.0000 H   0  0  0  0  0  0  0  0  0  0  0  0
   -7.8191    1.5314    0.0000 H   0  0  0  0  0  0  0  0  0  0  0  0
   -8.6051   -0.6281    0.0000 H   0  0  0  0  0  0  0  0  0  0  0  0
   -7.3060   -2.1763    0.0000 H   0  0  0  0  0  0  0  0  0  0  0  0
   -5.0428   -1.7772    0.0000 H   0  0  0  0  0  0  0  0  0  0  0  0
  1  2  1  0
  2  3  2  3
  3  4  1  0
  4  5  1  0
  5  6  1  0
  6  7  1  0
  2  8  1  0
  8  9  1  0
  9 10  1  0
  7  5  1  0
 10  8  1  0
  3 11  1  0
  4 12  1  0
  4 13  1  0
  5 14  1  6
  6 15  1  0
  6 16  1  0
  8 17  1  0
  9 18  1  0
  9 19  1  0
 10 20  1  0
 10 21  1  0
M  END
$$$$
