
     RDKit          2D

 35 36  0  0  0  0  0  0  0  0999 V2000
   -6.3419    1.7919    0.0000 C   0  0  0  0  0  0  0  0  0  0  0  0
   -4.8646    1.5314    0.0000 C   0  0  0  0  0  0  0  0  0  0  0  0
   -3.3874    1.2709    0.0000 C   0  0  0  0  0  0  0  0  0  0  0  0
   -1.9102    1.0105    0.0000 C   0  0  0  0  0  0  0  0  0  0  0  0
   -0.4330    0.7500    0.0000 C   0  0  0  0  0  0  0  0  0  0  0  0
    0.8660    0.0000    0.0000 C   0  0  0  0  0  0  0  0  0  0  0  0
   -0.4330   -0.7500    0.0000 C   0  0  0  0  0  0  0  0  0  0  0  0
   -4.6042    3.0086    0.0000 C   0  0  0  0  0  0  0  0  0  0  0  0
   -4.8646    4.4858    0.0000 C   0  0  0  0  0  0  0  0  0  0  0  0
   -6.0137    3.5217    0.0000 N   0  0  0  0  0  0  0  0  0  0  0  0
   -7.4909    3.2612    0.0000 C   0  0  0  0  0  0  0  0  0  0  0  0
   -8.9681    3.0007    0.0000 C   0  0  0  0  0  0  0  0  0  0  0  0
  -10.4453    2.7402    0.0000 N   0  0  0  0  0  0  0  0  0  0  0  0
   -7.1379    1.8336    0.0000 H   0  0  0  0  0  0  0  0  0  0  0  0
   -6.4037    2.6755    0.0000 H   0  0  0  0  0  0  0  0  0  0  0  0
   -6.6023    0.3147    0.0000 H   0  0  0  0  0  0  0  0  0  0  0  0
   -5.1251    0.0542    0.0000 H   0  0  0  0  0  0  0  0  0  0  0  0
   -3.6479   -0.2063    0.0000 H   0  0  0  0  0  0  0  0  0  0  0  0
   -3.0677    2.3167    0.0000 H   0  0  0  0  0  0  0  0  0  0  0  0
   -2.3050   -0.2805    0.0000 H   0  0  0  0  0  0  0  0  0  0  0  0
   -1.6498    2.4877    0.0000 H   0  0  0  0  0  0  0  0  0  0  0  0
    0.0800    2.1595    0.0000 H   0  0  0  0  0  0  0  0  0  0  0  0
    1.8302    1.1491    0.0000 H   0  0  0  0  0  0  0  0  0  0  0  0
    1.8302   -1.1491    0.0000 H   0  0  0  0  0  0  0  0  0  0  0  0
    0.0800   -2.1595    0.0000 H   0  0  0  0  0  0  0  0  0  0  0  0
   -1.7240   -1.1447    0.0000 H   0  0  0  0  0  0  0  0  0  0  0  0
   -3.5188    3.1419    0.0000 H   0  0  0  0  0  0  0  0  0  0  0  0
   -3.4551    4.9989    0.0000 H   0  0  0  0  0  0  0  0  0  0  0  0
   -5.6146    5.7849    0.0000 H   0  0  0  0  0  0  0  0  0  0  0  0
   -7.4492    2.4651    0.0000 H   0  0  0  0  0  0  0  0  0  0  0  0
   -7.7514    4.7384    0.0000 H   0  0  0  0  0  0  0  0  0  0  0  0
   -9.2286    4.4779    0.0000 H   0  0  0  0  0  0  0  0  0  0  0  0
   -8.7077    1.5235    0.0000 H   0  0  0  0  0  0  0  0  0  0  0  0
  -11.4095    3.8893    0.0000 H   0  0  0  0  0  0  0  0  0  0  0  0
  -10.9584    1.3307    0.0000 H   0  0  0  0  0  0  0  0  0  0  0  0
  1  2  1  0
  2  3  1  0
  3  4  1  0
  4  5  1  0
  5  6  1  0
  6  7  1  0
  2  8  1  0
  8  9  1  0
  9 10  1  0
 10 11  1  0
 11 12  1  0
 12 13  1  0
  7  5  1  0
 10  8  1  0
  1 14  1  0
  1 15  1  0
  1 16  1  0
  2 17  1  0
  3 18  1  0
  3 19  1  0
  4 20  1  0
  4 21  1  0
  5 22  1  0
  6 23  1  0
  6 24  1  0
  7 25  1  0
  7 26  1  0
  8 27  1  0
  9 28  1  0
  9 29  1  0
 11 30  1  0
 11 31  1  0
 12 32  1  0
 12 33  1  0
 13 34  1  0
 13 35  1  0
M  END
$$$$
