
     RDKit          2D

 44 46  0  0  0  0  0  0  0  0999 V2000
    5.7348    4.0148    0.0000 C   0  0  0  0  0  0  0  0  0  0  0  0
    4.6201    3.0111    0.0000 C   0  0  0  0  0  0  0  0  0  0  0  0
    3.5054    2.0074    0.0000 C   0  0  0  0  0  0  0  0  0  0  0  0
    2.3907    1.0037    0.0000 C   0  0  0  0  0  0  0  0  0  0  0  0
    1.2760    0.0000    0.0000 C   0  0  0  0  0  0  0  0  0  0  0  0
    0.3943    1.2135    0.0000 C   0  0  0  0  0  0  0  0  0  0  0  0
   -1.0323    0.7500    0.0000 C   0  0  0  0  0  0  0  0  0  0  0  0
   -2.2458    1.6317    0.0000 C   0  0  0  0  0  0  0  0  0  0  0  0
   -3.0846    2.8752    0.0000 C   0  0  0  0  0  0  0  0  0  0  0  0
   -1.5883    2.9799    0.0000 O   0  0  0  0  0  0  0  0  0  0  0  0
   -1.0323   -0.7500    0.0000 C   0  0  0  0  0  0  0  0  0  0  0  0
   -2.3688   -1.4310    0.0000 N   0  0  0  0  0  0  0  0  0  0  0  0
   -2.8323   -2.8576    0.0000 C   0  0  0  0  0  0  0  0  0  0  0  0
   -2.1513   -4.1941    0.0000 C   0  0  0  0  0  0  0  0  0  0  0  0
   -3.1255   -5.3347    0.0000 C   0  0  0  0  0  0  0  0  0  0  0  0
   -4.6004   -5.0613    0.0000 O   0  0  0  0  0  0  0  0  0  0  0  0
   -0.7248   -4.6576    0.0000 N   0  0  0  0  0  2  0  0  0  0  0  0
    0.6118   -3.9766    0.0000 C   0  0  0  0  0  0  0  0  0  0  0  0
    2.1097   -4.0551    0.0000 O   0  0  0  0  0  0  0  0  0  0  0  0
    1.0753   -2.5500    0.0000 N   0  0  0  0  0  2  0  0  0  0  0  0
    0.3943   -1.2135    0.0000 C   0  0  0  0  0  0  0  0  0  0  0  0
    6.8496    5.0185    0.0000 H   0  0  0  0  0  0  0  0  0  0  0  0
    6.7385    2.9001    0.0000 H   0  0  0  0  0  0  0  0  0  0  0  0
    4.7311    5.1295    0.0000 H   0  0  0  0  0  0  0  0  0  0  0  0
    5.6238    1.8964    0.0000 H   0  0  0  0  0  0  0  0  0  0  0  0
    3.6164    4.1258    0.0000 H   0  0  0  0  0  0  0  0  0  0  0  0
    2.5017    3.1221    0.0000 H   0  0  0  0  0  0  0  0  0  0  0  0
    4.5091    0.8927    0.0000 H   0  0  0  0  0  0  0  0  0  0  0  0
    1.9335    1.6567    0.0000 H   0  0  0  0  0  0  0  0  0  0  0  0
    3.3944   -0.1110    0.0000 H   0  0  0  0  0  0  0  0  0  0  0  0
    2.5047   -0.8603    0.0000 H   0  0  0  0  0  0  0  0  0  0  0  0
   -0.2158    2.5838    0.0000 H   0  0  0  0  0  0  0  0  0  0  0  0
    1.0309    1.6933    0.0000 H   0  0  0  0  0  0  0  0  0  0  0  0
   -3.3248    0.5897    0.0000 H   0  0  0  0  0  0  0  0  0  0  0  0
   -4.4549    2.2651    0.0000 H   0  0  0  0  0  0  0  0  0  0  0  0
   -3.4475    4.3307    0.0000 H   0  0  0  0  0  0  0  0  0  0  0  0
   -3.5094   -0.4568    0.0000 H   0  0  0  0  0  0  0  0  0  0  0  0
   -3.9470   -3.8613    0.0000 H   0  0  0  0  0  0  0  0  0  0  0  0
   -4.0903   -2.0406    0.0000 H   0  0  0  0  0  0  0  0  0  0  0  0
   -2.6248   -6.7487    0.0000 H   0  0  0  0  0  0  0  0  0  0  0  0
   -5.5746   -6.2019    0.0000 H   0  0  0  0  0  0  0  0  0  0  0  0
    0.9236   -5.4438    0.0000 H   0  0  0  0  0  0  0  0  0  0  0  0
    2.7907   -5.3916    0.0000 H   0  0  0  0  0  0  0  0  0  0  0  0
    1.8642   -1.5126    0.0000 H   0  0  0  0  0  0  0  0  0  0  0  0
  1  2  1  0
  2  3  1  0
  3  4  1  0
  4  5  1  0
  5  6  1  0
  6  7  1  0
  7  8  1  0
  8  9  1  0
  9 10  1  0
  7 11  2  0
 11 12  1  0
 12 13  1  0
 13 14  1  0
 14 15  2  3
 15 16  1  0
 14 17  1  0
 17 18  1  0
 18 19  1  0
 18 20  1  0
 20 21  1  0
 21  5  1  0
 10  8  1  0
 21 11  1  0
  1 22  1  0
  1 23  1  0
  1 24  1  0
  2 25  1  0
  2 26  1  0
  3 27  1  0
  3 28  1  0
  4 29  1  0
  4 30  1  0
  5 31  1  6
  6 32  1  0
  6 33  1  0
  8 34  1  1
  9 35  1  0
  9 36  1  0
 12 37  1  0
 13 38  1  0
 13 39  1  0
 15 40  1  0
 16 41  1  0
 18 42  1  1
 19 43  1  0
 21 44  1  1
M  RAD  2  17   2  20   2
M  END
$$$$
