
     RDKit          2D

 72 79  0  0  0  0  0  0  0  0999 V2000
    3.5991   -8.7644    0.0000 C   0  0  0  0  0  0  0  0  0  0  0  0
    2.2126   -8.1919    0.0000 C   0  0  0  0  0  0  0  0  0  0  0  0
    2.0152   -6.7049    0.0000 C   0  0  0  0  0  0  0  0  0  0  0  0
    0.5570   -7.0567    0.0000 C   0  0  0  0  0  0  0  0  0  0  0  0
   -0.0155   -8.4431    0.0000 C   0  0  0  0  0  0  0  0  0  0  0  0
   -0.2281   -5.7786    0.0000 C   0  0  0  0  0  0  0  0  0  0  0  0
    0.7448   -4.6369    0.0000 C   0  0  0  0  0  0  0  0  0  0  0  0
    1.4591   -3.3179    0.0000 C   0  0  0  0  0  0  0  0  0  0  0  0
    2.1734   -1.9989    0.0000 C   0  0  0  0  0  0  0  0  0  0  0  0
    0.1401   -2.6036    0.0000 C   0  0  0  0  0  0  0  0  0  0  0  0
   -1.3582   -2.5323    0.0000 C   0  0  0  0  0  0  0  0  0  0  0  0
   -3.1058   -1.6852    0.0000 C   0  0  0  0  0  0  0  0  0  0  0  0
   -4.5682   -1.3515    0.0000 C   0  0  0  0  0  0  0  0  0  0  0  0
   -5.2190    0.0000    0.0000 C   0  0  0  0  0  0  0  0  0  0  0  0
   -4.5682    1.3515    0.0000 C   0  0  0  0  0  0  0  0  0  0  0  0
   -3.1058    1.6852    0.0000 C   0  0  0  0  0  0  0  0  0  0  0  0
   -3.7566    3.0367    0.0000 C   0  0  0  0  0  0  0  0  0  0  0  0
   -1.9330    0.7500    0.0000 C   0  0  0  0  0  0  0  0  0  0  0  0
   -1.9330   -0.7500    0.0000 C   0  0  0  0  0  0  0  0  0  0  0  0
   -0.4330   -0.7500    0.0000 C   0  0  0  0  0  0  0  0  0  0  0  0
   -0.4330    0.7500    0.0000 C   0  0  0  0  0  0  0  0  0  0  0  0
    0.8660    0.0000    0.0000 C   0  0  0  0  0  0  0  0  0  0  0  0
    2.1888    0.7073    0.0000 C   0  0  0  0  0  0  0  0  0  0  0  0
    3.2702   -0.3321    0.0000 O   0  0  0  0  0  0  0  0  0  0  0  0
    2.6159   -1.6819    0.0000 Sb  0  0  0  0  0  3  0  0  0  0  0  0
    1.1300   -1.4766    0.0000 C   0  0  0  0  0  0  0  0  0  0  0  0
   -5.9196    2.0023    0.0000 C   0  0  0  0  0  0  0  0  0  0  0  0
   -7.2711    2.6531    0.0000 C   0  0  0  0  0  0  0  0  0  0  0  0
   -6.5704    0.6508    0.0000 C   0  0  0  0  0  0  0  0  0  0  0  0
    2.1313   -5.2094    0.0000 C   0  0  0  0  0  0  0  0  0  0  0  0
    3.6064   -5.4811    0.0000 C   0  0  0  0  0  0  0  0  0  0  0  0
    3.7965  -10.2513    0.0000 H   0  0  0  0  0  0  0  0  0  0  0  0
    4.7881   -7.8499    0.0000 H   0  0  0  0  0  0  0  0  0  0  0  0
    1.1439   -9.2444    0.0000 H   0  0  0  0  0  0  0  0  0  0  0  0
    3.5085   -6.8471    0.0000 H   0  0  0  0  0  0  0  0  0  0  0  0
    0.7472   -9.7347    0.0000 H   0  0  0  0  0  0  0  0  0  0  0  0
   -1.5024   -8.6405    0.0000 H   0  0  0  0  0  0  0  0  0  0  0  0
   -1.3866   -4.8258    0.0000 H   0  0  0  0  0  0  0  0  0  0  0  0
   -1.4171   -6.6930    0.0000 H   0  0  0  0  0  0  0  0  0  0  0  0
   -0.6608   -4.1132    0.0000 H   0  0  0  0  0  0  0  0  0  0  0  0
    2.8553   -3.8661    0.0000 H   0  0  0  0  0  0  0  0  0  0  0  0
    2.5473   -0.5462    0.0000 H   0  0  0  0  0  0  0  0  0  0  0  0
    3.3955   -2.8686    0.0000 H   0  0  0  0  0  0  0  0  0  0  0  0
    1.0664   -0.9866    0.0000 H   0  0  0  0  0  0  0  0  0  0  0  0
   -0.2628   -4.0485    0.0000 H   0  0  0  0  0  0  0  0  0  0  0  0
   -1.6411   -4.0054    0.0000 H   0  0  0  0  0  0  0  0  0  0  0  0
   -2.7391   -3.1182    0.0000 H   0  0  0  0  0  0  0  0  0  0  0  0
   -4.5682   -2.8515    0.0000 H   0  0  0  0  0  0  0  0  0  0  0  0
   -5.9790   -1.8610    0.0000 H   0  0  0  0  0  0  0  0  0  0  0  0
   -6.4010   -0.9235    0.0000 H   0  0  0  0  0  0  0  0  0  0  0  0
   -4.9456    2.8032    0.0000 H   0  0  0  0  0  0  0  0  0  0  0  0
   -2.0558    2.7564    0.0000 H   0  0  0  0  0  0  0  0  0  0  0  0
   -4.4074    4.3881    0.0000 H   0  0  0  0  0  0  0  0  0  0  0  0
   -2.4051    3.6875    0.0000 H   0  0  0  0  0  0  0  0  0  0  0  0
   -5.1773    2.5555    0.0000 H   0  0  0  0  0  0  0  0  0  0  0  0
   -1.2687    2.0949    0.0000 H   0  0  0  0  0  0  0  0  0  0  0  0
   -3.2031    0.0480    0.0000 H   0  0  0  0  0  0  0  0  0  0  0  0
   -0.4069   -2.2498    0.0000 H   0  0  0  0  0  0  0  0  0  0  0  0
   -0.0448    2.1989    0.0000 H   0  0  0  0  0  0  0  0  0  0  0  0
    1.3471    1.9489    0.0000 H   0  0  0  0  0  0  0  0  0  0  0  0
    3.3356    1.6742    0.0000 H   0  0  0  0  0  0  0  0  0  0  0  0
    3.4791   -2.9086    0.0000 H   0  0  0  0  0  0  0  0  0  0  0  0
    2.0148   -0.2654    0.0000 H   0  0  0  0  0  0  0  0  0  0  0  0
   -5.2688    3.3537    0.0000 H   0  0  0  0  0  0  0  0  0  0  0  0
   -8.6225    3.3039    0.0000 H   0  0  0  0  0  0  0  0  0  0  0  0
   -6.6202    4.0046    0.0000 H   0  0  0  0  0  0  0  0  0  0  0  0
   -7.9219    1.3017    0.0000 H   0  0  0  0  0  0  0  0  0  0  0  0
   -7.9863    0.1554    0.0000 H   0  0  0  0  0  0  0  0  0  0  0  0
    2.7279   -3.8332    0.0000 H   0  0  0  0  0  0  0  0  0  0  0  0
    5.0816   -5.7529    0.0000 H   0  0  0  0  0  0  0  0  0  0  0  0
    3.8782   -4.0059    0.0000 H   0  0  0  0  0  0  0  0  0  0  0  0
    3.5165   -6.9784    0.0000 H   0  0  0  0  0  0  0  0  0  0  0  0
  1  2  2  3
  2  3  1  0
  3  4  1  0
  4  5  2  3
  4  6  1  0
  6  7  1  0
  7  8  1  0
  8  9  1  0
  8 10  1  0
 10 11  1  0
 11 12  1  0
 12 13  1  0
 13 14  1  0
 14 15  1  0
 15 16  1  0
 16 17  1  0
 16 18  1  0
 18 19  1  0
 19 20  1  0
 20 21  1  0
 21 22  1  0
 22 23  1  0
 23 24  1  0
 24 25  1  0
 25 26  1  0
 15 27  1  0
 27 28  1  0
 27 29  1  0
  7 30  1  0
 30 31  1  0
 30  3  1  0
 26 10  1  0
 19 12  1  0
 22 20  1  0
 29 12  1  0
 29 14  1  0
 21 18  1  0
 26 22  1  0
  1 32  1  0
  1 33  1  0
  2 34  1  0
  3 35  1  0
  5 36  1  0
  5 37  1  0
  6 38  1  0
  6 39  1  0
  7 40  1  0
  8 41  1  0
  9 42  1  0
  9 43  1  0
  9 44  1  0
 10 45  1  0
 11 46  1  0
 11 47  1  0
 13 48  1  0
 13 49  1  0
 14 50  1  0
 15 51  1  0
 16 52  1  0
 17 53  1  0
 17 54  1  0
 17 55  1  0
 18 56  1  0
 19 57  1  0
 20 58  1  0
 21 59  1  0
 23 60  1  0
 23 61  1  0
 25 62  1  0
 26 63  1  0
 27 64  1  0
 28 65  1  0
 28 66  1  0
 28 67  1  0
 29 68  1  0
 30 69  1  0
 31 70  1  0
 31 71  1  0
 31 72  1  0
M  END
$$$$
