
     RDKit          2D

 71 73  0  0  0  0  0  0  0  0999 V2000
    6.3263   -7.3193    0.0000 C   0  0  0  0  0  0  0  0  0  0  0  0
    5.3621   -6.1702    0.0000 C   0  0  0  0  0  0  0  0  0  0  0  0
    5.8751   -4.7607    0.0000 C   0  0  0  0  0  0  0  0  0  0  0  0
    6.3882   -3.3512    0.0000 C   0  0  0  0  0  0  0  0  0  0  0  0
    6.9012   -1.9416    0.0000 C   0  0  0  0  0  0  0  0  0  0  0  0
    7.4142   -0.5321    0.0000 C   0  0  0  0  0  0  0  0  0  0  0  0
    7.9272    0.8775    0.0000 C   0  0  0  0  0  0  0  0  0  0  0  0
    9.3368    0.3644    0.0000 C   0  0  0  0  0  0  0  0  0  0  0  0
    9.8498    1.7740    0.0000 C   0  0  0  0  0  0  0  0  0  0  0  0
    8.4403    2.2870    0.0000 C   0  0  0  0  0  0  0  0  0  0  0  0
    4.9786   -2.8381    0.0000 C   0  0  0  0  0  0  0  0  0  0  0  0
    3.5691   -2.3251    0.0000 C   0  0  0  0  0  0  0  0  0  0  0  0
    2.1595   -1.8121    0.0000 C   0  0  0  0  0  0  0  0  0  0  0  0
    2.6726   -0.4025    0.0000 O   0  0  0  0  0  0  0  0  0  0  0  0
    0.7500   -1.2990    0.0000 C   0  0  0  0  0  0  0  0  0  0  0  0
    1.5000    0.0000    0.0000 C   0  0  0  0  0  0  0  0  0  0  0  0
    0.7500    1.2990    0.0000 C   0  0  0  0  0  0  0  0  0  0  0  0
   -0.7500    1.2990    0.0000 C   0  0  0  0  0  0  0  0  0  0  0  0
   -1.5000    0.0000    0.0000 C   0  0  0  0  0  0  0  0  0  0  0  0
   -2.6491   -0.9642    0.0000 C   0  0  0  0  0  0  0  0  0  0  0  0
   -0.7500   -1.2990    0.0000 C   0  0  0  0  0  0  0  0  0  0  0  0
    4.4656   -4.2477    0.0000 C   0  0  0  0  0  0  0  0  0  0  0  0
    3.5014   -5.3967    0.0000 C   0  0  0  0  0  0  0  0  0  0  0  0
    2.9884   -3.9872    0.0000 C   0  0  0  0  0  0  0  0  0  0  0  0
    1.5112   -4.2477    0.0000 C   0  0  0  0  0  0  0  0  0  0  0  0
    0.4141   -3.2247    0.0000 O   0  0  0  0  0  0  0  0  0  0  0  0
    0.9981   -5.6572    0.0000 C   0  0  0  0  0  0  0  0  0  0  0  0
    0.4851   -7.0667    0.0000 O   0  0  0  0  0  0  0  0  0  0  0  0
   -0.4114   -5.1442    0.0000 O   0  0  0  0  0  0  0  0  0  0  0  0
    5.8132   -8.7288    0.0000 H   0  0  0  0  0  0  0  0  0  0  0  0
    7.8035   -7.0588    0.0000 H   0  0  0  0  0  0  0  0  0  0  0  0
    3.9276   -6.6088    0.0000 H   0  0  0  0  0  0  0  0  0  0  0  0
    5.0823   -4.6774    0.0000 H   0  0  0  0  0  0  0  0  0  0  0  0
    7.2847   -5.2737    0.0000 H   0  0  0  0  0  0  0  0  0  0  0  0
    7.7977   -3.8642    0.0000 H   0  0  0  0  0  0  0  0  0  0  0  0
    8.3107   -2.4547    0.0000 H   0  0  0  0  0  0  0  0  0  0  0  0
    5.5647   -1.2606    0.0000 H   0  0  0  0  0  0  0  0  0  0  0  0
    8.7507   -1.2131    0.0000 H   0  0  0  0  0  0  0  0  0  0  0  0
    6.0047   -0.0191    0.0000 H   0  0  0  0  0  0  0  0  0  0  0  0
    6.5177    1.3905    0.0000 H   0  0  0  0  0  0  0  0  0  0  0  0
   10.7463   -0.1486    0.0000 H   0  0  0  0  0  0  0  0  0  0  0  0
    8.9994   -1.0971    0.0000 H   0  0  0  0  0  0  0  0  0  0  0  0
   10.3628    3.1835    0.0000 H   0  0  0  0  0  0  0  0  0  0  0  0
   11.2594    1.2609    0.0000 H   0  0  0  0  0  0  0  0  0  0  0  0
    7.0307    2.8000    0.0000 H   0  0  0  0  0  0  0  0  0  0  0  0
    8.9533    3.6965    0.0000 H   0  0  0  0  0  0  0  0  0  0  0  0
    5.3160   -1.3766    0.0000 H   0  0  0  0  0  0  0  0  0  0  0  0
    4.2501   -0.9886    0.0000 H   0  0  0  0  0  0  0  0  0  0  0  0
    2.7302   -3.5686    0.0000 H   0  0  0  0  0  0  0  0  0  0  0  0
    1.6465   -3.2216    0.0000 H   0  0  0  0  0  0  0  0  0  0  0  0
    4.1070    0.0361    0.0000 H   0  0  0  0  0  0  0  0  0  0  0  0
    0.3114   -2.7335    0.0000 H   0  0  0  0  0  0  0  0  0  0  0  0
    2.6491    0.9642    0.0000 H   0  0  0  0  0  0  0  0  0  0  0  0
    2.8482   -0.6575    0.0000 H   0  0  0  0  0  0  0  0  0  0  0  0
    0.4895    2.7762    0.0000 H   0  0  0  0  0  0  0  0  0  0  0  0
    2.1595    1.8121    0.0000 H   0  0  0  0  0  0  0  0  0  0  0  0
   -2.1595    1.8121    0.0000 H   0  0  0  0  0  0  0  0  0  0  0  0
   -0.4895    2.7762    0.0000 H   0  0  0  0  0  0  0  0  0  0  0  0
   -2.6491    0.9642    0.0000 H   0  0  0  0  0  0  0  0  0  0  0  0
   -3.7981   -1.9284    0.0000 H   0  0  0  0  0  0  0  0  0  0  0  0
   -3.6132    0.1849    0.0000 H   0  0  0  0  0  0  0  0  0  0  0  0
   -1.8321   -2.2222    0.0000 H   0  0  0  0  0  0  0  0  0  0  0  0
   -0.4895   -2.7762    0.0000 H   0  0  0  0  0  0  0  0  0  0  0  0
   -2.0865   -1.9801    0.0000 H   0  0  0  0  0  0  0  0  0  0  0  0
    5.5445   -5.2897    0.0000 H   0  0  0  0  0  0  0  0  0  0  0  0
    4.3183   -6.6548    0.0000 H   0  0  0  0  0  0  0  0  0  0  0  0
    2.3035   -6.2995    0.0000 H   0  0  0  0  0  0  0  0  0  0  0  0
    2.6254   -2.5318    0.0000 H   0  0  0  0  0  0  0  0  0  0  0  0
    2.3346   -6.3382    0.0000 H   0  0  0  0  0  0  0  0  0  0  0  0
   -0.9921   -7.3272    0.0000 H   0  0  0  0  0  0  0  0  0  0  0  0
   -1.5605   -6.1084    0.0000 H   0  0  0  0  0  0  0  0  0  0  0  0
  1  2  2  3
  2  3  1  0
  3  4  1  0
  4  5  1  0
  5  6  1  0
  6  7  1  0
  7  8  1  0
  8  9  1  0
  9 10  1  0
  4 11  1  0
 11 12  1  0
 12 13  1  0
 13 14  1  0
 13 15  1  0
 15 16  1  0
 16 17  1  0
 17 18  1  0
 18 19  1  0
 19 20  1  0
 19 21  1  0
 11 22  1  0
 22 23  1  0
 23 24  1  0
 24 25  1  0
 25 26  2  0
 25 27  1  0
 27 28  1  0
 27 29  1  0
 10  7  1  0
 21 15  1  0
 24 22  1  0
  1 30  1  0
  1 31  1  0
  2 32  1  0
  3 33  1  0
  3 34  1  0
  4 35  1  0
  5 36  1  0
  5 37  1  0
  6 38  1  0
  6 39  1  0
  7 40  1  0
  8 41  1  0
  8 42  1  0
  9 43  1  0
  9 44  1  0
 10 45  1  0
 10 46  1  0
 11 47  1  0
 12 48  1  0
 12 49  1  0
 13 50  1  0
 14 51  1  0
 15 52  1  0
 16 53  1  0
 16 54  1  0
 17 55  1  0
 17 56  1  0
 18 57  1  0
 18 58  1  0
 19 59  1  0
 20 60  1  0
 20 61  1  0
 20 62  1  0
 21 63  1  0
 21 64  1  0
 22 65  1  0
 23 66  1  0
 23 67  1  0
 24 68  1  0
 27 69  1  0
 28 70  1  0
 29 71  1  0
M  END
$$$$
