
     RDKit          2D

 58 61  0  0  0  0  0  0  0  0999 V2000
    6.0037    0.0721    0.0000 C   0  0  0  0  0  0  0  0  0  0  0  0
    5.3698   -1.2873    0.0000 C   0  0  0  0  0  0  0  0  0  0  0  0
    4.7359   -2.6468    0.0000 N   0  0  0  0  0  0  0  0  0  0  0  0
    4.8666   -4.1411    0.0000 C   0  0  0  0  0  0  0  0  0  0  0  0
    4.4784   -5.5900    0.0000 C   0  0  0  0  0  0  0  0  0  0  0  0
    3.5071   -3.5071    0.0000 C   0  0  0  0  0  0  0  0  0  0  0  0
    2.4465   -2.4465    0.0000 C   0  0  0  0  0  0  0  0  0  0  0  0
    1.3858   -1.3858    0.0000 C   0  0  0  0  0  0  0  0  0  0  0  0
    1.9598    0.0000    0.0000 C   0  0  0  0  0  0  0  0  0  0  0  0
    1.3858    1.3858    0.0000 O   0  0  0  0  0  0  0  0  0  0  0  0
    0.0000    1.9598    0.0000 C   0  0  0  0  0  0  0  0  0  0  0  0
   -1.3858    1.3858    0.0000 O   0  0  0  0  0  0  0  0  0  0  0  0
   -1.9598    0.0000    0.0000 C   0  0  0  0  0  0  0  0  0  0  0  0
   -1.3858   -1.3858    0.0000 C   0  0  0  0  0  0  0  0  0  0  0  0
   -1.5816   -2.8730    0.0000 C   0  0  0  0  0  0  0  0  0  0  0  0
   -1.7774   -4.3602    0.0000 C   0  0  0  0  0  0  0  0  0  0  0  0
   -1.9732   -5.8473    0.0000 C   0  0  0  0  0  0  0  0  0  0  0  0
   -2.1690   -7.3345    0.0000 C   0  0  0  0  0  0  0  0  0  0  0  0
   -2.3648   -8.8217    0.0000 C   0  0  0  0  0  0  0  0  0  0  0  0
   -3.8519   -8.6259    0.0000 C   0  0  0  0  0  0  0  0  0  0  0  0
   -4.0477  -10.1130    0.0000 N   0  0  0  0  0  0  0  0  0  0  0  0
   -3.4737  -11.4989    0.0000 C   0  0  0  0  0  0  0  0  0  0  0  0
   -2.5606  -10.3088    0.0000 C   0  0  0  0  0  0  0  0  0  0  0  0
   -0.0000   -1.9598    0.0000 C   0  0  0  0  0  0  0  0  0  0  0  0
    6.6376    1.4316    0.0000 H   0  0  0  0  0  0  0  0  0  0  0  0
    7.3632   -0.5618    0.0000 H   0  0  0  0  0  0  0  0  0  0  0  0
    4.6443    0.7061    0.0000 H   0  0  0  0  0  0  0  0  0  0  0  0
    4.2041   -0.3433    0.0000 H   0  0  0  0  0  0  0  0  0  0  0  0
    6.7293   -1.9212    0.0000 H   0  0  0  0  0  0  0  0  0  0  0  0
    6.3609   -4.2718    0.0000 H   0  0  0  0  0  0  0  0  0  0  0  0
    4.0901   -7.0388    0.0000 H   0  0  0  0  0  0  0  0  0  0  0  0
    3.1415   -5.4021    0.0000 H   0  0  0  0  0  0  0  0  0  0  0  0
    5.9273   -5.9782    0.0000 H   0  0  0  0  0  0  0  0  0  0  0  0
    2.6038   -4.5104    0.0000 H   0  0  0  0  0  0  0  0  0  0  0  0
    1.6154   -3.5103    0.0000 H   0  0  0  0  0  0  0  0  0  0  0  0
    3.3699   -1.2644    0.0000 H   0  0  0  0  0  0  0  0  0  0  0  0
    3.4487    0.1828    0.0000 H   0  0  0  0  0  0  0  0  0  0  0  0
   -0.9131    3.1499    0.0000 H   0  0  0  0  0  0  0  0  0  0  0  0
    0.9131    3.1499    0.0000 H   0  0  0  0  0  0  0  0  0  0  0  0
   -3.2523   -0.7613    0.0000 H   0  0  0  0  0  0  0  0  0  0  0  0
   -3.1499    0.9131    0.0000 H   0  0  0  0  0  0  0  0  0  0  0  0
   -2.8380   -1.7614    0.0000 H   0  0  0  0  0  0  0  0  0  0  0  0
   -3.0688   -2.6772    0.0000 H   0  0  0  0  0  0  0  0  0  0  0  0
   -0.8098   -3.0726    0.0000 H   0  0  0  0  0  0  0  0  0  0  0  0
   -3.2646   -4.1644    0.0000 H   0  0  0  0  0  0  0  0  0  0  0  0
   -0.2902   -4.5559    0.0000 H   0  0  0  0  0  0  0  0  0  0  0  0
   -0.4860   -6.0431    0.0000 H   0  0  0  0  0  0  0  0  0  0  0  0
   -3.4604   -5.6515    0.0000 H   0  0  0  0  0  0  0  0  0  0  0  0
   -3.0265   -7.1127    0.0000 H   0  0  0  0  0  0  0  0  0  0  0  0
   -0.6818   -7.5303    0.0000 H   0  0  0  0  0  0  0  0  0  0  0  0
   -0.8776   -9.0174    0.0000 H   0  0  0  0  0  0  0  0  0  0  0  0
   -5.3391   -8.4301    0.0000 H   0  0  0  0  0  0  0  0  0  0  0  0
   -3.8442   -7.7402    0.0000 H   0  0  0  0  0  0  0  0  0  0  0  0
   -4.7388  -12.3048    0.0000 H   0  0  0  0  0  0  0  0  0  0  0  0
   -2.4603  -12.6048    0.0000 H   0  0  0  0  0  0  0  0  0  0  0  0
   -1.1747  -10.8828    0.0000 H   0  0  0  0  0  0  0  0  0  0  0  0
    0.6166   -3.0067    0.0000 H   0  0  0  0  0  0  0  0  0  0  0  0
   -0.2515   -2.8091    0.0000 H   0  0  0  0  0  0  0  0  0  0  0  0
  1  2  1  0
  2  3  1  0
  3  4  1  0
  4  5  1  0
  4  6  1  0
  6  7  1  0
  7  8  1  0
  8  9  2  0
  9 10  1  0
 10 11  1  0
 11 12  1  0
 12 13  1  0
 13 14  1  0
 14 15  1  0
 15 16  1  0
 16 17  1  0
 17 18  1  0
 18 19  1  0
 19 20  1  0
 20 21  1  0
 21 22  1  0
 22 23  1  0
 14 24  1  0
  6  3  1  0
 24  8  1  0
 23 19  1  0
 23 21  1  0
  1 25  1  0
  1 26  1  0
  1 27  1  0
  2 28  1  0
  2 29  1  0
  4 30  1  0
  5 31  1  0
  5 32  1  0
  5 33  1  0
  6 34  1  0
  7 35  1  0
  7 36  1  0
  9 37  1  0
 11 38  1  0
 11 39  1  0
 13 40  1  0
 13 41  1  0
 14 42  1  0
 15 43  1  0
 15 44  1  0
 16 45  1  0
 16 46  1  0
 17 47  1  0
 17 48  1  0
 18 49  1  0
 18 50  1  0
 19 51  1  0
 20 52  1  0
 20 53  1  0
 22 54  1  0
 22 55  1  0
 23 56  1  0
 24 57  1  0
 24 58  1  0
M  END
$$$$
