
     RDKit          2D

 35 36  0  0  0  0  0  0  0  0999 V2000
   -6.3419    1.7919    0.0000 C   0  0  0  0  0  0  0  0  0  0  0  0
   -4.8646    1.5314    0.0000 C   0  0  0  0  0  0  0  0  0  0  0  0
   -3.3874    1.2709    0.0000 C   0  0  0  0  0  0  0  0  0  0  0  0
   -1.9102    1.0105    0.0000 C   0  0  0  0  0  0  0  0  0  0  0  0
   -0.4330    0.7500    0.0000 C   0  0  0  0  0  0  0  0  0  0  0  0
    1.0442    1.0105    0.0000 C   0  0  0  0  0  0  0  0  0  0  0  0
    0.0800    2.1595    0.0000 C   0  0  0  0  0  0  0  0  0  0  0  0
   -3.6479   -0.2063    0.0000 C   0  0  0  0  0  0  0  0  0  0  0  0
   -5.1251    0.0542    0.0000 O   0  0  0  0  0  0  0  0  0  0  0  0
   -3.9084   -1.6835    0.0000 C   0  0  0  0  0  0  0  0  0  0  0  0
   -2.7593   -2.6477    0.0000 O   0  0  0  0  0  0  0  0  0  0  0  0
   -5.3179   -2.1965    0.0000 O   0  0  0  0  0  0  0  0  0  0  0  0
   -5.5784   -3.6737    0.0000 C   0  0  0  0  0  0  0  0  0  0  0  0
   -6.3284   -4.9728    0.0000 C   0  0  0  0  0  0  0  0  0  0  0  0
   -7.0784   -3.6737    0.0000 C   0  0  0  0  0  0  0  0  0  0  0  0
   -7.8191    2.0524    0.0000 H   0  0  0  0  0  0  0  0  0  0  0  0
   -6.0814    3.2691    0.0000 H   0  0  0  0  0  0  0  0  0  0  0  0
   -6.6023    0.3147    0.0000 H   0  0  0  0  0  0  0  0  0  0  0  0
   -4.6042    3.0086    0.0000 H   0  0  0  0  0  0  0  0  0  0  0  0
   -5.1889    0.8032    0.0000 H   0  0  0  0  0  0  0  0  0  0  0  0
   -3.1270    2.7482    0.0000 H   0  0  0  0  0  0  0  0  0  0  0  0
   -1.8318    2.5084    0.0000 H   0  0  0  0  0  0  0  0  0  0  0  0
   -1.9887   -0.4875    0.0000 H   0  0  0  0  0  0  0  0  0  0  0  0
   -0.4330   -0.7500    0.0000 H   0  0  0  0  0  0  0  0  0  0  0  0
    1.5572   -0.3991    0.0000 H   0  0  0  0  0  0  0  0  0  0  0  0
    2.3432    1.7605    0.0000 H   0  0  0  0  0  0  0  0  0  0  0  0
    1.0442    3.3086    0.0000 H   0  0  0  0  0  0  0  0  0  0  0  0
   -1.1179    3.0623    0.0000 H   0  0  0  0  0  0  0  0  0  0  0  0
   -2.2135   -0.6449    0.0000 H   0  0  0  0  0  0  0  0  0  0  0  0
   -6.0893   -1.0949    0.0000 H   0  0  0  0  0  0  0  0  0  0  0  0
   -4.1689   -4.1868    0.0000 H   0  0  0  0  0  0  0  0  0  0  0  0
   -5.1793   -5.9369    0.0000 H   0  0  0  0  0  0  0  0  0  0  0  0
   -7.4775   -5.9369    0.0000 H   0  0  0  0  0  0  0  0  0  0  0  0
   -8.4879   -4.1868    0.0000 H   0  0  0  0  0  0  0  0  0  0  0  0
   -7.3389   -2.1965    0.0000 H   0  0  0  0  0  0  0  0  0  0  0  0
  1  2  1  0
  2  3  1  0
  3  4  1  0
  4  5  1  0
  5  6  1  0
  6  7  1  0
  3  8  1  0
  8  9  1  0
  8 10  1  0
 10 11  2  0
 10 12  1  0
 12 13  1  0
 13 14  1  0
 14 15  1  0
  7  5  1  0
 15 13  1  0
  1 16  1  0
  1 17  1  0
  1 18  1  0
  2 19  1  0
  2 20  1  0
  3 21  1  1
  4 22  1  0
  4 23  1  0
  5 24  1  0
  6 25  1  0
  6 26  1  0
  7 27  1  0
  7 28  1  0
  8 29  1  6
  9 30  1  0
 13 31  1  0
 14 32  1  0
 14 33  1  0
 15 34  1  0
 15 35  1  0
M  END
$$$$
