
     RDKit          2D

105110  0  0  0  0  0  0  0  0999 V2000
   -5.2433    3.8855    0.0000 C   0  0  0  0  0  0  0  0  0  0  0  0
   -3.7531    3.7145    0.0000 C   0  0  0  0  0  0  0  0  0  0  0  0
   -3.1691    5.0962    0.0000 O   0  0  0  0  0  0  0  0  0  0  0  0
   -1.9309    5.9428    0.0000 C   0  0  0  0  0  0  0  0  0  0  0  0
   -0.4316    5.9857    0.0000 C   0  0  0  0  0  0  0  0  0  0  0  0
    0.8530    5.2111    0.0000 C   0  0  0  0  0  0  0  0  0  0  0  0
    2.3415    5.3962    0.0000 C   0  0  0  0  0  0  0  0  0  0  0  0
    1.1648    6.6783    0.0000 C   0  0  0  0  0  0  0  0  0  0  0  0
    2.5013    5.9973    0.0000 C   0  0  0  0  0  0  0  0  0  0  0  0
    3.9279    6.4608    0.0000 C   0  0  0  0  0  0  0  0  0  0  0  0
    4.6089    7.7973    0.0000 C   0  0  0  0  0  0  0  0  0  0  0  0
    5.8669    8.6143    0.0000 C   0  0  0  0  0  0  0  0  0  0  0  0
    4.1454    9.2239    0.0000 C   0  0  0  0  0  0  0  0  0  0  0  0
    4.4573   10.6911    0.0000 C   0  0  0  0  0  0  0  0  0  0  0  0
    4.7691   12.1584    0.0000 C   0  0  0  0  0  0  0  0  0  0  0  0
    5.0810   13.6256    0.0000 C   0  0  0  0  0  0  0  0  0  0  0  0
    3.3019   12.4702    0.0000 N   0  0  0  0  0  0  0  0  0  0  0  0
    2.8384   13.8968    0.0000 C   0  0  0  0  0  0  0  0  0  0  0  0
    2.8089    9.9049    0.0000 C   0  0  0  0  0  0  0  0  0  0  0  0
    2.9266   11.4003    0.0000 C   0  0  0  0  0  0  0  0  0  0  0  0
    1.3823    9.4414    0.0000 C   0  0  0  0  0  0  0  0  0  0  0  0
   -0.0849    9.7532    0.0000 C   0  0  0  0  0  0  0  0  0  0  0  0
    0.7013    8.1049    0.0000 C   0  0  0  0  0  0  0  0  0  0  0  0
   -0.7941    8.2226    0.0000 C   0  0  0  0  0  0  0  0  0  0  0  0
    1.5148    3.8650    0.0000 C   0  0  0  0  0  0  0  0  0  0  0  0
    1.3438    2.3747    0.0000 C   0  0  0  0  0  0  0  0  0  0  0  0
    0.3943    1.2135    0.0000 C   0  0  0  0  0  0  0  0  0  0  0  0
    1.2760    0.0000    0.0000 C   0  0  0  0  0  0  0  0  0  0  0  0
    0.3943   -1.2135    0.0000 C   0  0  0  0  0  0  0  0  0  0  0  0
    1.6933   -1.9635    0.0000 C   0  0  0  0  0  0  0  0  0  0  0  0
    0.7292   -3.1126    0.0000 C   0  0  0  0  0  0  0  0  0  0  0  0
    1.2422   -4.5221    0.0000 C   0  0  0  0  0  0  0  0  0  0  0  0
    2.7194   -4.7826    0.0000 C   0  0  0  0  0  0  0  0  0  0  0  0
    2.2064   -3.3731    0.0000 C   0  0  0  0  0  0  0  0  0  0  0  0
    3.6836   -3.6335    0.0000 C   0  0  0  0  0  0  0  0  0  0  0  0
    5.0744   -4.1954    0.0000 O   0  0  0  0  0  0  0  0  0  0  0  0
    4.9697   -5.6918    0.0000 C   0  0  0  0  0  0  0  0  0  0  0  0
    3.5143   -6.0547    0.0000 O   0  0  0  0  0  0  0  0  0  0  0  0
    3.1705   -2.2240    0.0000 O   0  0  0  0  0  0  0  0  0  0  0  0
   -1.0323   -0.7500    0.0000 C   0  0  0  0  0  0  0  0  0  0  0  0
   -1.0323    0.7500    0.0000 C   0  0  0  0  0  0  0  0  0  0  0  0
   -2.4830    1.1313    0.0000 O   0  0  0  0  0  0  0  0  0  0  0  0
   -3.4973    2.2364    0.0000 C   0  0  0  0  0  0  0  0  0  0  0  0
   -4.9777    2.4781    0.0000 C   0  0  0  0  0  0  0  0  0  0  0  0
   -5.8403    5.2615    0.0000 H   0  0  0  0  0  0  0  0  0  0  0  0
   -6.2767    2.7982    0.0000 H   0  0  0  0  0  0  0  0  0  0  0  0
   -1.8406    7.4401    0.0000 H   0  0  0  0  0  0  0  0  0  0  0  0
   -3.1360    6.8360    0.0000 H   0  0  0  0  0  0  0  0  0  0  0  0
    0.4539    7.1964    0.0000 H   0  0  0  0  0  0  0  0  0  0  0  0
   -0.9624    7.3886    0.0000 H   0  0  0  0  0  0  0  0  0  0  0  0
    3.8415    5.3986    0.0000 H   0  0  0  0  0  0  0  0  0  0  0  0
    2.1563    6.8848    0.0000 H   0  0  0  0  0  0  0  0  0  0  0  0
    2.7067    3.9414    0.0000 H   0  0  0  0  0  0  0  0  0  0  0  0
   -0.3076    6.9646    0.0000 H   0  0  0  0  0  0  0  0  0  0  0  0
    3.3183    4.7393    0.0000 H   0  0  0  0  0  0  0  0  0  0  0  0
    1.7972    4.6728    0.0000 H   0  0  0  0  0  0  0  0  0  0  0  0
    5.3462    5.9724    0.0000 H   0  0  0  0  0  0  0  0  0  0  0  0
    4.3666    5.0264    0.0000 H   0  0  0  0  0  0  0  0  0  0  0  0
    5.8377    6.9370    0.0000 H   0  0  0  0  0  0  0  0  0  0  0  0
    7.1249    9.4312    0.0000 H   0  0  0  0  0  0  0  0  0  0  0  0
    6.6839    7.3563    0.0000 H   0  0  0  0  0  0  0  0  0  0  0  0
    5.2094    9.9625    0.0000 H   0  0  0  0  0  0  0  0  0  0  0  0
    5.5157    9.8341    0.0000 H   0  0  0  0  0  0  0  0  0  0  0  0
    5.9245   10.3793    0.0000 H   0  0  0  0  0  0  0  0  0  0  0  0
    3.0390   11.1795    0.0000 H   0  0  0  0  0  0  0  0  0  0  0  0
    6.2364   11.8465    0.0000 H   0  0  0  0  0  0  0  0  0  0  0  0
    5.3929   15.0928    0.0000 H   0  0  0  0  0  0  0  0  0  0  0  0
    6.5482   13.3137    0.0000 H   0  0  0  0  0  0  0  0  0  0  0  0
    3.8231   14.4426    0.0000 H   0  0  0  0  0  0  0  0  0  0  0  0
    1.9653   11.7893    0.0000 H   0  0  0  0  0  0  0  0  0  0  0  0
    2.3749   15.3234    0.0000 H   0  0  0  0  0  0  0  0  0  0  0  0
    1.4118   13.4333    0.0000 H   0  0  0  0  0  0  0  0  0  0  0  0
    4.1978   14.5308    0.0000 H   0  0  0  0  0  0  0  0  0  0  0  0
    1.6904   12.2499    0.0000 H   0  0  0  0  0  0  0  0  0  0  0  0
    4.0840   12.3545    0.0000 H   0  0  0  0  0  0  0  0  0  0  0  0
    1.3038   10.9393    0.0000 H   0  0  0  0  0  0  0  0  0  0  0  0
   -1.5032   10.2416    0.0000 H   0  0  0  0  0  0  0  0  0  0  0  0
    0.2269   11.2205    0.0000 H   0  0  0  0  0  0  0  0  0  0  0  0
   -0.7426    8.4051    0.0000 H   0  0  0  0  0  0  0  0  0  0  0  0
   -1.6000    9.4876    0.0000 H   0  0  0  0  0  0  0  0  0  0  0  0
   -1.9175    7.2287    0.0000 H   0  0  0  0  0  0  0  0  0  0  0  0
    2.8671    3.2160    0.0000 H   0  0  0  0  0  0  0  0  0  0  0  0
    2.8823    4.4815    0.0000 H   0  0  0  0  0  0  0  0  0  0  0  0
    2.2804    1.2031    0.0000 H   0  0  0  0  0  0  0  0  0  0  0  0
    2.8368    2.5197    0.0000 H   0  0  0  0  0  0  0  0  0  0  0  0
    0.0546    2.6745    0.0000 H   0  0  0  0  0  0  0  0  0  0  0  0
    2.5047    0.8603    0.0000 H   0  0  0  0  0  0  0  0  0  0  0  0
    2.6004   -0.7041    0.0000 H   0  0  0  0  0  0  0  0  0  0  0  0
   -0.3783   -2.4993    0.0000 H   0  0  0  0  0  0  0  0  0  0  0  0
    2.3744   -0.6270    0.0000 H   0  0  0  0  0  0  0  0  0  0  0  0
   -0.5699   -3.8626    0.0000 H   0  0  0  0  0  0  0  0  0  0  0  0
   -0.3679   -2.0896    0.0000 H   0  0  0  0  0  0  0  0  0  0  0  0
    1.2422   -6.0221    0.0000 H   0  0  0  0  0  0  0  0  0  0  0  0
   -0.2350   -4.7826    0.0000 H   0  0  0  0  0  0  0  0  0  0  0  0
    0.7100   -3.2683    0.0000 H   0  0  0  0  0  0  0  0  0  0  0  0
    2.0235   -1.8843    0.0000 H   0  0  0  0  0  0  0  0  0  0  0  0
    6.4688   -5.6394    0.0000 H   0  0  0  0  0  0  0  0  0  0  0  0
    5.1785   -7.1772    0.0000 H   0  0  0  0  0  0  0  0  0  0  0  0
   -1.3442   -2.2172    0.0000 H   0  0  0  0  0  0  0  0  0  0  0  0
   -2.5321   -0.7762    0.0000 H   0  0  0  0  0  0  0  0  0  0  0  0
   -2.3229   -0.0143    0.0000 H   0  0  0  0  0  0  0  0  0  0  0  0
   -4.2099    0.9165    0.0000 H   0  0  0  0  0  0  0  0  0  0  0  0
   -6.4765    2.5376    0.0000 H   0  0  0  0  0  0  0  0  0  0  0  0
   -5.2194    0.9977    0.0000 H   0  0  0  0  0  0  0  0  0  0  0  0
   -5.1014    3.9730    0.0000 H   0  0  0  0  0  0  0  0  0  0  0  0
  1  2  2  3
  2  3  1  0
  3  4  1  0
  4  5  1  0
  5  6  1  0
  6  7  1  6
  6  8  1  0
  8  9  1  0
  9 10  1  0
 10 11  1  0
 11 12  1  0
 11 13  1  0
 13 14  1  0
 14 15  1  0
 15 16  1  0
 15 17  1  0
 17 18  1  0
 13 19  1  0
 19 20  2  3
 19 21  1  0
 21 22  1  0
 21 23  1  0
 23 24  2  3
  6 25  1  0
 25 26  1  0
 26 27  1  0
 27 28  1  0
 28 29  1  0
 29 30  1  0
 30 31  1  0
 31 32  1  0
 32 33  1  0
 33 34  1  0
 34 35  1  0
 35 36  1  6
 36 37  1  0
 37 38  1  0
 35 39  1  0
 29 40  1  0
 40 41  1  0
 41 42  1  0
 42 43  1  0
 43 44  1  0
 43  2  1  0
 23  8  1  0
 41 27  1  0
 39 30  1  0
 35 33  1  0
 33 38  1  6
  1 45  1  0
  1 46  1  0
  4 47  1  0
  4 48  1  0
  5 49  1  0
  5 50  1  0
  7 51  1  0
  7 52  1  0
  7 53  1  0
  8 54  1  6
  9 55  1  0
  9 56  1  0
 10 57  1  0
 10 58  1  0
 11 59  1  6
 12 60  1  0
 12 61  1  0
 12 62  1  0
 13 63  1  6
 14 64  1  0
 14 65  1  0
 15 66  1  6
 16 67  1  0
 16 68  1  0
 16 69  1  0
 17 70  1  0
 18 71  1  0
 18 72  1  0
 18 73  1  0
 20 74  1  0
 20 75  1  0
 21 76  1  1
 22 77  1  0
 22 78  1  0
 22 79  1  0
 24 80  1  0
 24 81  1  0
 25 82  1  0
 25 83  1  0
 26 84  1  0
 26 85  1  0
 27 86  1  6
 28 87  1  0
 28 88  1  0
 29 89  1  1
 30 90  1  1
 31 91  1  0
 31 92  1  0
 32 93  1  0
 32 94  1  0
 34 95  1  0
 34 96  1  0
 37 97  1  0
 37 98  1  0
 40 99  1  0
 40100  1  0
 41101  1  6
 43102  1  6
 44103  1  0
 44104  1  0
 44105  1  0
M  END
$$$$
