
     RDKit          2D

110117  0  0  0  0  0  0  0  0999 V2000
    3.2477   -8.7135    0.0000 C   0  0  0  0  0  0  0  0  0  0  0  0
    3.2477   -7.2135    0.0000 C   0  0  0  0  0  0  0  0  0  0  0  0
    3.2477   -5.7135    0.0000 C   0  0  0  0  0  0  0  0  0  0  0  0
    3.2477   -4.2135    0.0000 C   0  0  0  0  0  0  0  0  0  0  0  0
    4.7477   -4.2135    0.0000 N   0  0  0  0  0  0  0  0  0  0  0  0
    5.4977   -5.5126    0.0000 C   0  0  0  0  0  0  0  0  0  0  0  0
    6.9977   -5.5126    0.0000 C   0  0  0  0  0  0  0  0  0  0  0  0
    8.4977   -5.5126    0.0000 C   0  0  0  0  0  0  0  0  0  0  0  0
    9.9977   -5.5126    0.0000 C   0  0  0  0  0  0  0  0  0  0  0  0
   11.4977   -5.5126    0.0000 O   0  0  0  0  0  0  0  0  0  0  0  0
    3.2477   -2.7135    0.0000 C   0  0  0  0  0  0  0  0  0  0  0  0
    3.2477   -1.2135    0.0000 C   0  0  0  0  0  0  0  0  0  0  0  0
    1.7477   -1.2135    0.0000 C   0  0  0  0  0  0  0  0  0  0  0  0
    0.8660    0.0000    0.0000 C   0  0  0  0  0  0  0  0  0  0  0  0
   -0.4330    0.7500    0.0000 C   0  0  0  0  0  0  0  0  0  0  0  0
   -1.7321    0.0000    0.0000 C   0  0  0  0  0  0  0  0  0  0  0  0
   -2.8688   -1.2135    0.0000 C   0  0  0  0  0  0  0  0  0  0  0  0
   -4.2954   -0.7500    0.0000 O   0  0  0  0  0  0  0  0  0  0  0  0
   -2.8688   -2.7135    0.0000 C   0  0  0  0  0  0  0  0  0  0  0  0
   -1.9871   -3.9271    0.0000 C   0  0  0  0  0  0  0  0  0  0  0  0
   -3.4871   -3.9271    0.0000 C   0  0  0  0  0  0  0  0  0  0  0  0
   -3.9507   -2.5005    0.0000 O   0  0  0  0  0  0  0  0  0  0  0  0
   -0.5606   -4.3906    0.0000 C   0  0  0  0  0  0  0  0  0  0  0  0
    0.3211   -5.6041    0.0000 C   0  0  0  0  0  0  0  0  0  0  0  0
    2.0707   -6.9551    0.0000 C   0  0  0  0  0  0  0  0  0  0  0  0
    1.8360   -8.4366    0.0000 C   0  0  0  0  0  0  0  0  0  0  0  0
    1.6014   -9.9181    0.0000 C   0  0  0  0  0  0  0  0  0  0  0  0
    0.3545   -8.2020    0.0000 C   0  0  0  0  0  0  0  0  0  0  0  0
   -1.1271   -7.9673    0.0000 C   0  0  0  0  0  0  0  0  0  0  0  0
   -2.6086   -7.7327    0.0000 C   0  0  0  0  0  0  0  0  0  0  0  0
   -0.8924   -6.4858    0.0000 C   0  0  0  0  0  0  0  0  0  0  0  0
    0.5891   -6.7204    0.0000 C   0  0  0  0  0  0  0  0  0  0  0  0
    0.8660   -3.9271    0.0000 C   0  0  0  0  0  0  0  0  0  0  0  0
    2.2926   -4.3906    0.0000 O   0  0  0  0  0  0  0  0  0  0  0  0
    1.7477   -2.7135    0.0000 Si  0  0  0  0  0  4  0  0  0  0  0  0
    2.4287   -1.3770    0.0000 C   0  0  0  0  0  0  0  0  0  0  0  0
   -0.4330   -0.7500    0.0000 C   0  0  0  0  0  0  0  0  0  0  0  0
   -0.4330   -2.2500    0.0000 C   0  0  0  0  0  0  0  0  0  0  0  0
   -0.4330   -3.7500    0.0000 C   0  0  0  0  0  0  0  0  0  0  0  0
   -0.4330   -5.2500    0.0000 C   0  0  0  0  0  0  0  0  0  0  0  0
   -0.4330   -6.7500    0.0000 C   0  0  0  0  0  0  0  0  0  0  0  0
   -0.4330   -8.2500    0.0000 C   0  0  0  0  0  0  0  0  0  0  0  0
   -1.9330   -6.7500    0.0000 C   0  0  0  0  0  0  0  0  0  0  0  0
   -3.4330   -6.7500    0.0000 C   0  0  0  0  0  0  0  0  0  0  0  0
   -1.9330   -8.2500    0.0000 C   0  0  0  0  0  0  0  0  0  0  0  0
    3.4305  -10.2023    0.0000 H   0  0  0  0  0  0  0  0  0  0  0  0
    1.8474   -9.2512    0.0000 H   0  0  0  0  0  0  0  0  0  0  0  0
    4.7477   -8.7135    0.0000 H   0  0  0  0  0  0  0  0  0  0  0  0
    4.7365   -7.3964    0.0000 H   0  0  0  0  0  0  0  0  0  0  0  0
    1.8474   -7.7512    0.0000 H   0  0  0  0  0  0  0  0  0  0  0  0
    4.7031   -6.0765    0.0000 H   0  0  0  0  0  0  0  0  0  0  0  0
    1.7477   -5.7135    0.0000 H   0  0  0  0  0  0  0  0  0  0  0  0
    1.9234   -4.9179    0.0000 H   0  0  0  0  0  0  0  0  0  0  0  0
    4.9116   -6.8933    0.0000 H   0  0  0  0  0  0  0  0  0  0  0  0
    6.9977   -7.0126    0.0000 H   0  0  0  0  0  0  0  0  0  0  0  0
    6.9977   -4.0126    0.0000 H   0  0  0  0  0  0  0  0  0  0  0  0
    8.4977   -7.0126    0.0000 H   0  0  0  0  0  0  0  0  0  0  0  0
    8.4977   -4.0126    0.0000 H   0  0  0  0  0  0  0  0  0  0  0  0
    9.9977   -7.0126    0.0000 H   0  0  0  0  0  0  0  0  0  0  0  0
    9.9977   -4.0126    0.0000 H   0  0  0  0  0  0  0  0  0  0  0  0
   12.2477   -6.8116    0.0000 H   0  0  0  0  0  0  0  0  0  0  0  0
    4.7477   -2.7135    0.0000 H   0  0  0  0  0  0  0  0  0  0  0  0
    4.7477   -1.2135    0.0000 H   0  0  0  0  0  0  0  0  0  0  0  0
    3.6107    0.2419    0.0000 H   0  0  0  0  0  0  0  0  0  0  0  0
    2.2607    0.1960    0.0000 H   0  0  0  0  0  0  0  0  0  0  0  0
    2.3214    0.3630    0.0000 H   0  0  0  0  0  0  0  0  0  0  0  0
   -0.4330    2.2500    0.0000 H   0  0  0  0  0  0  0  0  0  0  0  0
   -3.2321    0.0000    0.0000 H   0  0  0  0  0  0  0  0  0  0  0  0
   -4.6073    0.7172    0.0000 H   0  0  0  0  0  0  0  0  0  0  0  0
   -4.0179   -3.6776    0.0000 H   0  0  0  0  0  0  0  0  0  0  0  0
   -4.3652   -2.6090    0.0000 H   0  0  0  0  0  0  0  0  0  0  0  0
   -2.8688   -5.1406    0.0000 H   0  0  0  0  0  0  0  0  0  0  0  0
   -3.6960   -5.4124    0.0000 H   0  0  0  0  0  0  0  0  0  0  0  0
   -4.9544   -4.2389    0.0000 H   0  0  0  0  0  0  0  0  0  0  0  0
   -1.7097   -5.3547    0.0000 H   0  0  0  0  0  0  0  0  0  0  0  0
    1.8065   -5.3955    0.0000 H   0  0  0  0  0  0  0  0  0  0  0  0
    3.3826   -6.2279    0.0000 H   0  0  0  0  0  0  0  0  0  0  0  0
    3.2167   -9.0228    0.0000 H   0  0  0  0  0  0  0  0  0  0  0  0
    1.3667  -11.3997    0.0000 H   0  0  0  0  0  0  0  0  0  0  0  0
    3.0432  -10.3316    0.0000 H   0  0  0  0  0  0  0  0  0  0  0  0
    0.1071  -10.0490    0.0000 H   0  0  0  0  0  0  0  0  0  0  0  0
    0.1198   -9.6835    0.0000 H   0  0  0  0  0  0  0  0  0  0  0  0
   -1.1794   -9.4664    0.0000 H   0  0  0  0  0  0  0  0  0  0  0  0
   -4.0901   -7.4980    0.0000 H   0  0  0  0  0  0  0  0  0  0  0  0
   -2.8432   -9.2142    0.0000 H   0  0  0  0  0  0  0  0  0  0  0  0
   -2.7394   -6.2384    0.0000 H   0  0  0  0  0  0  0  0  0  0  0  0
   -2.0415   -5.5217    0.0000 H   0  0  0  0  0  0  0  0  0  0  0  0
    1.4063   -7.9783    0.0000 H   0  0  0  0  0  0  0  0  0  0  0  0
    1.4037   -5.3274    0.0000 H   0  0  0  0  0  0  0  0  0  0  0  0
    1.8790   -5.8324    0.0000 H   0  0  0  0  0  0  0  0  0  0  0  0
    3.2675   -0.1335    0.0000 H   0  0  0  0  0  0  0  0  0  0  0  0
    3.7652   -2.0580    0.0000 H   0  0  0  0  0  0  0  0  0  0  0  0
    1.2967   -0.3929    0.0000 H   0  0  0  0  0  0  0  0  0  0  0  0
    1.0224   -2.6130    0.0000 H   0  0  0  0  0  0  0  0  0  0  0  0
   -1.9330   -2.2500    0.0000 H   0  0  0  0  0  0  0  0  0  0  0  0
   -1.8884   -4.1130    0.0000 H   0  0  0  0  0  0  0  0  0  0  0  0
    0.9673   -4.2877    0.0000 H   0  0  0  0  0  0  0  0  0  0  0  0
   -1.9330   -5.2500    0.0000 H   0  0  0  0  0  0  0  0  0  0  0  0
    1.0558   -5.0672    0.0000 H   0  0  0  0  0  0  0  0  0  0  0  0
    0.9673   -7.2877    0.0000 H   0  0  0  0  0  0  0  0  0  0  0  0
   -0.7960   -9.7054    0.0000 H   0  0  0  0  0  0  0  0  0  0  0  0
   -1.8333   -8.7877    0.0000 H   0  0  0  0  0  0  0  0  0  0  0  0
    0.6815   -9.2539    0.0000 H   0  0  0  0  0  0  0  0  0  0  0  0
   -1.7502   -8.2388    0.0000 H   0  0  0  0  0  0  0  0  0  0  0  0
   -4.9330   -6.7500    0.0000 H   0  0  0  0  0  0  0  0  0  0  0  0
   -3.6159   -8.2388    0.0000 H   0  0  0  0  0  0  0  0  0  0  0  0
   -3.7960   -5.2946    0.0000 H   0  0  0  0  0  0  0  0  0  0  0  0
   -2.1159   -9.7388    0.0000 H   0  0  0  0  0  0  0  0  0  0  0  0
   -3.4218   -8.4328    0.0000 H   0  0  0  0  0  0  0  0  0  0  0  0
   -0.5327   -8.7877    0.0000 H   0  0  0  0  0  0  0  0  0  0  0  0
  1  2  1  0
  2  3  1  0
  3  4  1  0
  4  5  1  0
  5  6  2  3
  6  7  1  0
  7  8  1  0
  8  9  1  0
  9 10  1  0
  4 11  1  0
 11 12  1  0
 12 13  1  0
 13 14  1  0
 14 15  1  0
 15 16  1  0
 16 17  1  0
 17 18  1  6
 17 19  1  0
 19 20  1  0
 20 21  1  0
 21 22  1  0
 20 23  1  0
 23 24  1  0
 24 25  1  0
 25 26  1  0
 26 27  1  0
 26 28  1  0
 28 29  1  0
 29 30  1  0
 29 31  1  0
 31 32  1  0
 23 33  1  0
 33 34  1  0
 33 35  1  0
 35 36  1  1
 16 37  1  0
 37 38  1  6
 38 39  1  0
 39 40  1  0
 40 41  1  0
 41 42  1  0
 41 43  1  0
 43 44  1  0
 43 45  1  0
 35 11  1  0
 35 13  1  0
 37 14  1  0
 37 15  1  0
 22 17  1  0
 31 24  1  0
 32 25  1  0
 32 28  1  0
  1 46  1  0
  1 47  1  0
  1 48  1  0
  2 49  1  0
  2 50  1  0
  3 51  1  0
  3 52  1  0
  4 53  1  1
  6 54  1  0
  7 55  1  0
  7 56  1  0
  8 57  1  0
  8 58  1  0
  9 59  1  0
  9 60  1  0
 10 61  1  0
 11 62  1  6
 12 63  1  0
 12 64  1  0
 13 65  1  6
 14 66  1  6
 15 67  1  1
 16 68  1  1
 18 69  1  0
 19 70  1  0
 19 71  1  0
 20 72  1  1
 21 73  1  0
 21 74  1  0
 23 75  1  6
 24 76  1  1
 25 77  1  6
 26 78  1  1
 27 79  1  0
 27 80  1  0
 27 81  1  0
 28 82  1  6
 29 83  1  1
 30 84  1  0
 30 85  1  0
 30 86  1  0
 31 87  1  6
 32 88  1  6
 33 89  1  1
 34 90  1  0
 36 91  1  0
 36 92  1  0
 36 93  1  0
 38 94  1  0
 38 95  1  0
 39 96  1  0
 39 97  1  0
 40 98  1  0
 40 99  1  0
 41100  1  6
 42101  1  0
 42102  1  0
 42103  1  0
 43104  1  0
 44105  1  0
 44106  1  0
 44107  1  0
 45108  1  0
 45109  1  0
 45110  1  0
M  END
$$$$
