
     RDKit          2D

 99109  0  0  0  0  0  0  0  0999 V2000
    3.2286   -0.0000    0.0000 C   0  0  0  0  0  0  0  0  0  0  0  0
    1.7286    0.0000    0.0000 C   0  0  0  0  0  0  0  0  0  0  0  0
    1.0777    1.3515    0.0000 C   0  0  0  0  0  0  0  0  0  0  0  0
   -0.3846    1.6852    0.0000 C   0  0  0  0  0  0  0  0  0  0  0  0
   -1.5574    2.6205    0.0000 Si  0  0  0  0  0  4  0  0  0  0  0  0
   -1.5574    0.7500    0.0000 C   0  0  0  0  0  0  0  0  0  0  0  0
   -1.5574   -0.7500    0.0000 C   0  0  0  0  0  0  0  0  0  0  0  0
   -0.3846   -1.6852    0.0000 C   0  0  0  0  0  0  0  0  0  0  0  0
    0.2662   -3.0367    0.0000 C   0  0  0  0  0  0  0  0  0  0  0  0
    1.7101   -2.6304    0.0000 C   0  0  0  0  0  0  0  0  0  0  0  0
    3.1541   -2.2242    0.0000 C   0  0  0  0  0  0  0  0  0  0  0  0
    4.5980   -1.8179    0.0000 C   0  0  0  0  0  0  0  0  0  0  0  0
    6.0419   -1.4116    0.0000 C   0  0  0  0  0  0  0  0  0  0  0  0
    7.5377   -1.5237    0.0000 C   0  0  0  0  0  0  0  0  0  0  0  0
    6.6928   -2.7631    0.0000 C   0  0  0  0  0  0  0  0  0  0  0  0
    7.7666   -3.8105    0.0000 C   0  0  0  0  0  0  0  0  0  0  0  0
    8.8404   -4.8578    0.0000 C   0  0  0  0  0  0  0  0  0  0  0  0
   10.2076   -5.4747    0.0000 C   0  0  0  0  0  0  0  0  0  0  0  0
   10.0583   -3.9822    0.0000 C   0  0  0  0  0  0  0  0  0  0  0  0
   11.2762   -3.1066    0.0000 C   0  0  0  0  0  0  0  0  0  0  0  0
    9.9089   -2.4896    0.0000 C   0  0  0  0  0  0  0  0  0  0  0  0
    0.4155   -4.5292    0.0000 C   0  0  0  0  0  0  0  0  0  0  0  0
   -0.9517   -3.9123    0.0000 C   0  0  0  0  0  0  0  0  0  0  0  0
   -1.7967   -5.1517    0.0000 C   0  0  0  0  0  0  0  0  0  0  0  0
   -3.0146   -6.0273    0.0000 O   0  0  0  0  0  0  0  0  0  0  0  0
   -3.1640   -4.5347    0.0000 C   0  0  0  0  0  0  0  0  0  0  0  0
   -3.3133   -3.0422    0.0000 C   0  0  0  0  0  0  0  0  0  0  0  0
   -1.9103   -2.5116    0.0000 C   0  0  0  0  0  0  0  0  0  0  0  0
   -0.5072   -1.9811    0.0000 C   0  0  0  0  0  0  0  0  0  0  0  0
   -4.1889   -1.8243    0.0000 C   0  0  0  0  0  0  0  0  0  0  0  0
   -5.4068   -2.6999    0.0000 C   0  0  0  0  0  0  0  0  0  0  0  0
   -4.5312   -3.9178    0.0000 C   0  0  0  0  0  0  0  0  0  0  0  0
   -5.4810   -5.0788    0.0000 C   0  0  0  0  0  0  0  0  0  0  0  0
   -6.7706   -5.8449    0.0000 C   0  0  0  0  0  0  0  0  0  0  0  0
   -6.7893   -4.3451    0.0000 C   0  0  0  0  0  0  0  0  0  0  0  0
   -8.0976   -3.6113    0.0000 C   0  0  0  0  0  0  0  0  0  0  0  0
   -8.1163   -2.1114    0.0000 C   0  0  0  0  0  0  0  0  0  0  0  0
   -9.5966   -1.8694    0.0000 C   0  0  0  0  0  0  0  0  0  0  0  0
  -11.0770   -1.6273    0.0000 C   0  0  0  0  0  0  0  0  0  0  0  0
   -6.8080   -2.8452    0.0000 C   0  0  0  0  0  0  0  0  0  0  0  0
    1.0777   -1.3515    0.0000 C   0  0  0  0  0  0  0  0  0  0  0  0
    3.9786   -1.2990    0.0000 H   0  0  0  0  0  0  0  0  0  0  0  0
    3.9786    1.2990    0.0000 H   0  0  0  0  0  0  0  0  0  0  0  0
    1.2606    2.8403    0.0000 H   0  0  0  0  0  0  0  0  0  0  0  0
    2.5401    1.6852    0.0000 H   0  0  0  0  0  0  0  0  0  0  0  0
    0.0966    3.1059    0.0000 H   0  0  0  0  0  0  0  0  0  0  0  0
   -2.7301    3.5557    0.0000 H   0  0  0  0  0  0  0  0  0  0  0  0
   -0.6222    3.7932    0.0000 H   0  0  0  0  0  0  0  0  0  0  0  0
   -2.6286    1.5705    0.0000 H   0  0  0  0  0  0  0  0  0  0  0  0
   -3.0496    0.5970    0.0000 H   0  0  0  0  0  0  0  0  0  0  0  0
   -2.6494    1.7784    0.0000 H   0  0  0  0  0  0  0  0  0  0  0  0
   -2.2082   -2.1015    0.0000 H   0  0  0  0  0  0  0  0  0  0  0  0
   -2.9682   -0.2404    0.0000 H   0  0  0  0  0  0  0  0  0  0  0  0
   -1.2962   -2.8765    0.0000 H   0  0  0  0  0  0  0  0  0  0  0  0
    2.2894   -4.0141    0.0000 H   0  0  0  0  0  0  0  0  0  0  0  0
    1.8484   -1.1368    0.0000 H   0  0  0  0  0  0  0  0  0  0  0  0
    3.5603   -3.6681    0.0000 H   0  0  0  0  0  0  0  0  0  0  0  0
    2.7478   -0.7802    0.0000 H   0  0  0  0  0  0  0  0  0  0  0  0
    4.8252   -3.3006    0.0000 H   0  0  0  0  0  0  0  0  0  0  0  0
    4.1917   -0.3740    0.0000 H   0  0  0  0  0  0  0  0  0  0  0  0
    5.8926    0.0809    0.0000 H   0  0  0  0  0  0  0  0  0  0  0  0
    7.9079   -0.0701    0.0000 H   0  0  0  0  0  0  0  0  0  0  0  0
    8.9050   -2.1407    0.0000 H   0  0  0  0  0  0  0  0  0  0  0  0
    5.5907   -3.7806    0.0000 H   0  0  0  0  0  0  0  0  0  0  0  0
    6.7192   -4.8843    0.0000 H   0  0  0  0  0  0  0  0  0  0  0  0
    8.8139   -2.7367    0.0000 H   0  0  0  0  0  0  0  0  0  0  0  0
    7.9954   -6.0972    0.0000 H   0  0  0  0  0  0  0  0  0  0  0  0
    9.8375   -6.9284    0.0000 H   0  0  0  0  0  0  0  0  0  0  0  0
   11.7034   -5.5868    0.0000 H   0  0  0  0  0  0  0  0  0  0  0  0
   12.3500   -4.1539    0.0000 H   0  0  0  0  0  0  0  0  0  0  0  0
   12.1211   -1.8672    0.0000 H   0  0  0  0  0  0  0  0  0  0  0  0
   10.2790   -1.0360    0.0000 H   0  0  0  0  0  0  0  0  0  0  0  0
    8.4131   -2.3776    0.0000 H   0  0  0  0  0  0  0  0  0  0  0  0
    1.8865   -4.8228    0.0000 H   0  0  0  0  0  0  0  0  0  0  0  0
    0.2253   -6.0171    0.0000 H   0  0  0  0  0  0  0  0  0  0  0  0
   -2.0255   -2.8649    0.0000 H   0  0  0  0  0  0  0  0  0  0  0  0
   -0.8586   -6.3221    0.0000 H   0  0  0  0  0  0  0  0  0  0  0  0
   -1.0560   -3.7446    0.0000 H   0  0  0  0  0  0  0  0  0  0  0  0
   -2.4408   -1.1086    0.0000 H   0  0  0  0  0  0  0  0  0  0  0  0
    0.9500   -1.6255    0.0000 H   0  0  0  0  0  0  0  0  0  0  0  0
   -1.3615   -0.7481    0.0000 H   0  0  0  0  0  0  0  0  0  0  0  0
    0.3470   -3.2140    0.0000 H   0  0  0  0  0  0  0  0  0  0  0  0
   -5.0645   -0.6064    0.0000 H   0  0  0  0  0  0  0  0  0  0  0  0
   -3.2191   -0.6800    0.0000 H   0  0  0  0  0  0  0  0  0  0  0  0
   -6.8933   -2.9011    0.0000 H   0  0  0  0  0  0  0  0  0  0  0  0
   -6.2825   -1.4820    0.0000 H   0  0  0  0  0  0  0  0  0  0  0  0
   -4.5026   -6.2158    0.0000 H   0  0  0  0  0  0  0  0  0  0  0  0
   -6.2400   -7.2480    0.0000 H   0  0  0  0  0  0  0  0  0  0  0  0
   -8.2444   -6.1238    0.0000 H   0  0  0  0  0  0  0  0  0  0  0  0
   -9.3872   -4.3774    0.0000 H   0  0  0  0  0  0  0  0  0  0  0  0
   -7.6209   -0.6956    0.0000 H   0  0  0  0  0  0  0  0  0  0  0  0
   -9.3546   -0.3890    0.0000 H   0  0  0  0  0  0  0  0  0  0  0  0
   -9.8387   -3.3497    0.0000 H   0  0  0  0  0  0  0  0  0  0  0  0
  -12.5573   -1.3853    0.0000 H   0  0  0  0  0  0  0  0  0  0  0  0
  -10.8349   -0.1470    0.0000 H   0  0  0  0  0  0  0  0  0  0  0  0
  -11.3190   -3.1077    0.0000 H   0  0  0  0  0  0  0  0  0  0  0  0
   -5.7421   -1.7898    0.0000 H   0  0  0  0  0  0  0  0  0  0  0  0
    2.5401   -1.6852    0.0000 H   0  0  0  0  0  0  0  0  0  0  0  0
    1.4407   -2.8069    0.0000 H   0  0  0  0  0  0  0  0  0  0  0  0
  1  2  2  3
  2  3  1  0
  3  4  1  0
  4  5  1  0
  4  6  1  0
  6  7  1  0
  7  8  1  0
  8  9  1  0
  9 10  1  6
 10 11  1  0
 11 12  1  0
 12 13  1  0
 13 14  1  0
 14 15  1  0
 15 16  1  0
 16 17  1  0
 17 18  1  0
 18 19  1  0
 19 20  1  0
 20 21  1  0
  9 22  1  0
 22 23  1  0
 23 24  1  0
 24 25  1  0
 26 25  1  1
 26 27  1  0
 27 28  1  1
 28 29  1  0
 27 30  1  0
 30 31  1  0
 32 31  1  1
 32 33  1  0
 33 34  1  0
 35 34  1  1
 35 36  1  0
 36 37  1  0
 37 38  1  0
 38 39  1  0
 37 40  1  0
  8 41  1  0
 41  2  1  0
 23  9  1  0
 26 24  1  0
 32 27  1  0
 35 33  1  0
 40 36  1  0
 15 13  1  0
 19 17  1  0
 32 26  1  0
 40 35  1  0
 21 19  1  0
  1 42  1  0
  1 43  1  0
  3 44  1  0
  3 45  1  0
  4 46  1  1
  5 47  1  0
  5 48  1  0
  5 49  1  0
  6 50  1  0
  6 51  1  0
  7 52  1  0
  7 53  1  0
  8 54  1  6
 10 55  1  0
 10 56  1  0
 11 57  1  0
 11 58  1  0
 12 59  1  0
 12 60  1  0
 13 61  1  1
 14 62  1  0
 14 63  1  0
 15 64  1  6
 16 65  1  0
 16 66  1  0
 17 67  1  1
 18 68  1  0
 18 69  1  0
 20 70  1  0
 20 71  1  0
 21 72  1  0
 21 73  1  0
 22 74  1  0
 22 75  1  0
 23 76  1  1
 24 77  1  6
 28 78  1  0
 28 79  1  0
 29 80  1  0
 29 81  1  0
 29 82  1  0
 30 83  1  0
 30 84  1  0
 31 85  1  0
 31 86  1  0
 33 87  1  6
 34 88  1  0
 34 89  1  0
 36 90  1  6
 37 91  1  1
 38 92  1  0
 38 93  1  0
 39 94  1  0
 39 95  1  0
 39 96  1  0
 40 97  1  6
 41 98  1  0
 41 99  1  0
M  END
$$$$
