
     RDKit          2D

 34 35  0  0  0  0  0  0  0  0999 V2000
    2.1213   -3.1820    0.0000 C   0  0  0  0  0  0  0  0  0  0  0  0
    1.0607   -2.1213    0.0000 C   0  0  0  0  0  0  0  0  0  0  0  0
   -0.0000   -1.0607    0.0000 C   0  0  0  0  0  0  0  0  0  0  0  0
    1.0607    0.0000    0.0000 N   0  0  0  0  0  0  0  0  0  0  0  0
    0.0000    1.0607    0.0000 C   0  0  0  0  0  0  0  0  0  0  0  0
   -1.0607    2.1213    0.0000 C   0  0  0  0  0  0  0  0  0  0  0  0
   -1.0607    0.0000    0.0000 C   0  0  0  0  0  0  0  0  0  0  0  0
   -2.2427    0.9235    0.0000 Br  0  0  0  0  0  0  0  0  0  0  0  0
   -2.1213   -1.0607    0.0000 C   0  0  0  0  0  0  0  0  0  0  0  0
   -1.0607   -2.1213    0.0000 C   0  0  0  0  0  0  0  0  0  0  0  0
   -0.0000   -3.1820    0.0000 C   0  0  0  0  0  0  0  0  0  0  0  0
    1.0607   -4.2426    0.0000 C   0  0  0  0  0  0  0  0  0  0  0  0
   -1.0607   -4.2426    0.0000 C   0  0  0  0  0  0  0  0  0  0  0  0
   -2.1213   -5.3033    0.0000 O   0  0  0  0  0  0  0  0  0  0  0  0
    3.1820   -4.2426    0.0000 H   0  0  0  0  0  0  0  0  0  0  0  0
    3.1820   -2.1213    0.0000 H   0  0  0  0  0  0  0  0  0  0  0  0
    1.7108   -3.8653    0.0000 H   0  0  0  0  0  0  0  0  0  0  0  0
    2.1213   -1.0607    0.0000 H   0  0  0  0  0  0  0  0  0  0  0  0
    0.2882   -3.4071    0.0000 H   0  0  0  0  0  0  0  0  0  0  0  0
    2.5607    0.0000    0.0000 H   0  0  0  0  0  0  0  0  0  0  0  0
    1.0607    2.1213    0.0000 H   0  0  0  0  0  0  0  0  0  0  0  0
   -2.1213    3.1820    0.0000 H   0  0  0  0  0  0  0  0  0  0  0  0
   -0.0000    3.1820    0.0000 H   0  0  0  0  0  0  0  0  0  0  0  0
   -2.2427    1.1979    0.0000 H   0  0  0  0  0  0  0  0  0  0  0  0
   -3.1820   -2.1213    0.0000 H   0  0  0  0  0  0  0  0  0  0  0  0
   -3.1820    0.0000    0.0000 H   0  0  0  0  0  0  0  0  0  0  0  0
   -2.2427   -3.0448    0.0000 H   0  0  0  0  0  0  0  0  0  0  0  0
    1.2858   -2.4095    0.0000 H   0  0  0  0  0  0  0  0  0  0  0  0
    2.1213   -5.3033    0.0000 H   0  0  0  0  0  0  0  0  0  0  0  0
    0.1372   -5.4247    0.0000 H   0  0  0  0  0  0  0  0  0  0  0  0
    2.3465   -3.4702    0.0000 H   0  0  0  0  0  0  0  0  0  0  0  0
   -0.1372   -5.4247    0.0000 H   0  0  0  0  0  0  0  0  0  0  0  0
   -2.2427   -3.3192    0.0000 H   0  0  0  0  0  0  0  0  0  0  0  0
   -1.7331   -6.7522    0.0000 H   0  0  0  0  0  0  0  0  0  0  0  0
  1  2  1  0
  2  3  1  0
  3  4  1  0
  4  5  1  0
  5  6  1  0
  5  7  1  0
  7  8  1  0
  7  9  1  0
  9 10  1  0
 10 11  1  0
 11 12  1  0
 11 13  1  0
 13 14  1  0
  7  3  1  0
 10  3  1  0
  1 15  1  0
  1 16  1  0
  1 17  1  0
  2 18  1  0
  2 19  1  0
  4 20  1  0
  5 21  1  0
  6 22  1  0
  6 23  1  0
  6 24  1  0
  9 25  1  0
  9 26  1  0
 10 27  1  0
 11 28  1  0
 12 29  1  0
 12 30  1  0
 12 31  1  0
 13 32  1  0
 13 33  1  0
 14 34  1  0
M  END
$$$$
