
     RDKit          2D

104112  0  0  0  0  0  0  0  0999 V2000
    8.1700    1.7037    0.0000 C   0  0  0  0  0  0  0  0  0  0  0  0
    7.0209    2.6679    0.0000 C   0  0  0  0  0  0  0  0  0  0  0  0
    5.8718    3.6321    0.0000 C   0  0  0  0  0  0  0  0  0  0  0  0
    4.7228    4.5963    0.0000 C   0  0  0  0  0  0  0  0  0  0  0  0
    3.5737    5.5604    0.0000 C   0  0  0  0  0  0  0  0  0  0  0  0
    3.7586    3.4472    0.0000 C   0  0  0  0  0  0  0  0  0  0  0  0
    2.7944    2.2981    0.0000 C   0  0  0  0  0  0  0  0  0  0  0  0
    1.8302    1.1491    0.0000 C   0  0  0  0  0  0  0  0  0  0  0  0
    0.8660    0.0000    0.0000 C   0  0  0  0  0  0  0  0  0  0  0  0
   -0.4330    0.7500    0.0000 N   0  0  0  0  0  0  0  0  0  0  0  0
   -0.9749    2.1487    0.0000 C   0  0  0  0  0  0  0  0  0  0  0  0
   -1.9854    3.2572    0.0000 C   0  0  0  0  0  0  0  0  0  0  0  0
   -0.5707    3.7558    0.0000 C   0  0  0  0  0  0  0  0  0  0  0  0
    0.8440    4.2543    0.0000 C   0  0  0  0  0  0  0  0  0  0  0  0
    2.2588    4.7528    0.0000 C   0  0  0  0  0  0  0  0  0  0  0  0
    3.4177    5.7052    0.0000 N   0  0  0  0  0  0  0  0  0  0  0  0
    2.0135    6.2326    0.0000 C   0  0  0  0  0  0  0  0  0  0  0  0
    2.2891    7.7071    0.0000 C   0  0  0  0  0  0  0  0  0  0  0  0
   -3.3282    3.9258    0.0000 C   0  0  0  0  0  0  0  0  0  0  0  0
   -4.8218    4.0642    0.0000 C   0  0  0  0  0  0  0  0  0  0  0  0
   -6.2645    3.6537    0.0000 C   0  0  0  0  0  0  0  0  0  0  0  0
   -7.6094    4.4050    0.0000 C   0  0  0  0  0  0  0  0  0  0  0  0
   -9.0388    3.9503    0.0000 C   0  0  0  0  0  0  0  0  0  0  0  0
   -9.3597    2.4850    0.0000 C   0  0  0  0  0  0  0  0  0  0  0  0
   -8.2512    1.4745    0.0000 C   0  0  0  0  0  0  0  0  0  0  0  0
   -7.4615    2.7498    0.0000 C   0  0  0  0  0  0  0  0  0  0  0  0
   -8.5268    0.0000    0.0000 C   0  0  0  0  0  0  0  0  0  0  0  0
   -8.2512   -1.4745    0.0000 C   0  0  0  0  0  0  0  0  0  0  0  0
   -7.4615   -2.7498    0.0000 C   0  0  0  0  0  0  0  0  0  0  0  0
   -6.2645   -3.6537    0.0000 N   0  0  0  0  0  0  0  0  0  0  0  0
   -4.8218   -4.0642    0.0000 C   0  0  0  0  0  0  0  0  0  0  0  0
   -3.3282   -3.9258    0.0000 C   0  0  0  0  0  0  0  0  0  0  0  0
   -2.6596   -5.2686    0.0000 N   0  0  0  0  0  0  0  0  0  0  0  0
   -1.3168   -4.6000    0.0000 C   0  0  0  0  0  0  0  0  0  0  0  0
   -1.9854   -3.2572    0.0000 C   0  0  0  0  0  0  0  0  0  0  0  0
   -0.9749   -2.1487    0.0000 N   0  0  0  0  0  0  0  0  0  0  0  0
   -0.4330   -0.7500    0.0000 C   0  0  0  0  0  0  0  0  0  0  0  0
   -7.0542   -2.3784    0.0000 C   0  0  0  0  0  0  0  0  0  0  0  0
   -8.4355   -2.9631    0.0000 C   0  0  0  0  0  0  0  0  0  0  0  0
   -9.9335   -3.0401    0.0000 C   0  0  0  0  0  0  0  0  0  0  0  0
   -9.8566   -4.5381    0.0000 C   0  0  0  0  0  0  0  0  0  0  0  0
  -11.3546   -4.6150    0.0000 C   0  0  0  0  0  0  0  0  0  0  0  0
  -11.4316   -3.1170    0.0000 C   0  0  0  0  0  0  0  0  0  0  0  0
    9.3190    0.7395    0.0000 H   0  0  0  0  0  0  0  0  0  0  0  0
    6.9689    4.6551    0.0000 H   0  0  0  0  0  0  0  0  0  0  0  0
    6.6887    4.8901    0.0000 H   0  0  0  0  0  0  0  0  0  0  0  0
    5.8198    5.6192    0.0000 H   0  0  0  0  0  0  0  0  0  0  0  0
    2.6921    6.7740    0.0000 H   0  0  0  0  0  0  0  0  0  0  0  0
    4.6707    6.5834    0.0000 H   0  0  0  0  0  0  0  0  0  0  0  0
    2.7568    4.3024    0.0000 H   0  0  0  0  0  0  0  0  0  0  0  0
    4.9076    2.4830    0.0000 H   0  0  0  0  0  0  0  0  0  0  0  0
    2.7356    4.5443    0.0000 H   0  0  0  0  0  0  0  0  0  0  0  0
    3.9435    1.3340    0.0000 H   0  0  0  0  0  0  0  0  0  0  0  0
    1.5364    3.1151    0.0000 H   0  0  0  0  0  0  0  0  0  0  0  0
    2.9793    0.1849    0.0000 H   0  0  0  0  0  0  0  0  0  0  0  0
    0.6811    2.1132    0.0000 H   0  0  0  0  0  0  0  0  0  0  0  0
    1.8302   -1.1491    0.0000 H   0  0  0  0  0  0  0  0  0  0  0  0
    0.5244    2.1025    0.0000 H   0  0  0  0  0  0  0  0  0  0  0  0
   -0.0368    3.3192    0.0000 H   0  0  0  0  0  0  0  0  0  0  0  0
   -1.7113    4.7320    0.0000 H   0  0  0  0  0  0  0  0  0  0  0  0
   -1.0692    5.1705    0.0000 H   0  0  0  0  0  0  0  0  0  0  0  0
   -0.0722    2.3410    0.0000 H   0  0  0  0  0  0  0  0  0  0  0  0
    0.1768    5.5977    0.0000 H   0  0  0  0  0  0  0  0  0  0  0  0
    1.1664    2.7893    0.0000 H   0  0  0  0  0  0  0  0  0  0  0  0
    3.2897    3.6632    0.0000 H   0  0  0  0  0  0  0  0  0  0  0  0
    4.7942    6.3012    0.0000 H   0  0  0  0  0  0  0  0  0  0  0  0
    0.5266    6.4307    0.0000 H   0  0  0  0  0  0  0  0  0  0  0  0
    2.5647    9.1815    0.0000 H   0  0  0  0  0  0  0  0  0  0  0  0
    0.8146    7.9827    0.0000 H   0  0  0  0  0  0  0  0  0  0  0  0
    3.7636    7.4315    0.0000 H   0  0  0  0  0  0  0  0  0  0  0  0
   -2.3165    5.0333    0.0000 H   0  0  0  0  0  0  0  0  0  0  0  0
   -3.6053    5.4000    0.0000 H   0  0  0  0  0  0  0  0  0  0  0  0
   -4.2785    5.4624    0.0000 H   0  0  0  0  0  0  0  0  0  0  0  0
   -5.6127    5.3388    0.0000 H   0  0  0  0  0  0  0  0  0  0  0  0
   -6.7644    5.0680    0.0000 H   0  0  0  0  0  0  0  0  0  0  0  0
   -8.3054    5.7337    0.0000 H   0  0  0  0  0  0  0  0  0  0  0  0
   -6.6787    5.5814    0.0000 H   0  0  0  0  0  0  0  0  0  0  0  0
  -10.5375    4.0119    0.0000 H   0  0  0  0  0  0  0  0  0  0  0  0
   -9.2384    5.4369    0.0000 H   0  0  0  0  0  0  0  0  0  0  0  0
  -10.3109    1.3251    0.0000 H   0  0  0  0  0  0  0  0  0  0  0  0
  -10.7470    3.0555    0.0000 H   0  0  0  0  0  0  0  0  0  0  0  0
   -9.7394    1.6618    0.0000 H   0  0  0  0  0  0  0  0  0  0  0  0
   -8.1685    4.0727    0.0000 H   0  0  0  0  0  0  0  0  0  0  0  0
   -8.8441    3.3317    0.0000 H   0  0  0  0  0  0  0  0  0  0  0  0
   -9.8689    0.6699    0.0000 H   0  0  0  0  0  0  0  0  0  0  0  0
   -9.8689   -0.6699    0.0000 H   0  0  0  0  0  0  0  0  0  0  0  0
   -8.8441   -3.3317    0.0000 H   0  0  0  0  0  0  0  0  0  0  0  0
   -7.4645   -4.2498    0.0000 H   0  0  0  0  0  0  0  0  0  0  0  0
   -5.7622   -5.2329    0.0000 H   0  0  0  0  0  0  0  0  0  0  0  0
   -4.1121   -5.3858    0.0000 H   0  0  0  0  0  0  0  0  0  0  0  0
   -4.2864   -2.7718    0.0000 H   0  0  0  0  0  0  0  0  0  0  0  0
   -3.1362   -6.6908    0.0000 H   0  0  0  0  0  0  0  0  0  0  0  0
    0.1054   -5.0767    0.0000 H   0  0  0  0  0  0  0  0  0  0  0  0
   -0.4998   -3.4645    0.0000 H   0  0  0  0  0  0  0  0  0  0  0  0
    0.3005   -2.9384    0.0000 H   0  0  0  0  0  0  0  0  0  0  0  0
   -6.6023   -3.8087    0.0000 H   0  0  0  0  0  0  0  0  0  0  0  0
   -8.0996   -4.4250    0.0000 H   0  0  0  0  0  0  0  0  0  0  0  0
  -10.1925   -1.5626    0.0000 H   0  0  0  0  0  0  0  0  0  0  0  0
   -9.7796   -6.0361    0.0000 H   0  0  0  0  0  0  0  0  0  0  0  0
   -8.3844   -4.8259    0.0000 H   0  0  0  0  0  0  0  0  0  0  0  0
  -12.8526   -4.6920    0.0000 H   0  0  0  0  0  0  0  0  0  0  0  0
  -11.2776   -6.1131    0.0000 H   0  0  0  0  0  0  0  0  0  0  0  0
  -11.5085   -1.6190    0.0000 H   0  0  0  0  0  0  0  0  0  0  0  0
  -12.9296   -3.1940    0.0000 H   0  0  0  0  0  0  0  0  0  0  0  0
  1  2  3  0
  2  3  1  0
  3  4  1  0
  4  5  1  0
  4  6  1  0
  6  7  1  0
  7  8  1  0
  8  9  1  0
  9 10  1  0
 10 11  1  0
 11 12  1  0
 12 13  1  0
 13 14  1  0
 14 15  1  0
 15 16  1  0
 16 17  1  0
 17 18  1  0
 12 19  1  0
 19 20  1  0
 20 21  1  0
 21 22  1  0
 22 23  1  0
 23 24  1  0
 24 25  1  0
 25 26  1  0
 25 27  1  0
 27 28  1  0
 28 29  1  0
 29 30  1  0
 30 31  1  0
 31 32  1  0
 32 33  1  0
 33 34  1  0
 34 35  1  0
 35 36  1  0
 36 37  1  0
 30 38  1  0
 38 39  1  0
 39 40  1  0
 40 41  1  0
 41 42  1  0
 42 43  1  0
 37  9  1  0
 43 40  1  0
 37 10  1  0
 17 15  1  0
 26 21  1  0
 38 28  1  0
 39 28  1  0
 35 32  1  0
 37 34  1  0
  1 44  1  0
  3 45  1  0
  3 46  1  0
  4 47  1  0
  5 48  1  0
  5 49  1  0
  5 50  1  0
  6 51  1  0
  6 52  1  0
  7 53  1  0
  7 54  1  0
  8 55  1  0
  8 56  1  0
  9 57  1  0
 11 58  1  0
 11 59  1  0
 12 60  1  0
 13 61  1  0
 13 62  1  0
 14 63  1  0
 14 64  1  0
 15 65  1  0
 16 66  1  0
 17 67  1  0
 18 68  1  0
 18 69  1  0
 18 70  1  0
 19 71  1  0
 19 72  1  0
 20 73  1  0
 20 74  1  0
 21 75  1  0
 22 76  1  0
 22 77  1  0
 23 78  1  0
 23 79  1  0
 24 80  1  0
 24 81  1  0
 25 82  1  0
 26 83  1  0
 26 84  1  0
 27 85  1  0
 27 86  1  0
 29 87  1  0
 29 88  1  0
 31 89  1  0
 31 90  1  0
 32 91  1  0
 33 92  1  0
 34 93  1  0
 35 94  1  0
 36 95  1  0
 38 96  1  0
 39 97  1  0
 40 98  1  0
 41 99  1  0
 41100  1  0
 42101  1  0
 42102  1  0
 43103  1  0
 43104  1  0
M  END
$$$$
