
     RDKit          2D

 54 56  0  0  0  0  0  0  0  0999 V2000
    1.8302    1.1491    0.0000 C   0  0  0  0  0  0  0  0  0  0  0  0
    0.8660    0.0000    0.0000 C   0  0  0  0  0  0  0  0  0  0  0  0
   -0.4330    0.7500    0.0000 N   0  0  0  0  0  0  0  0  0  0  0  0
   -0.4330   -0.7500    0.0000 C   0  0  0  0  0  0  0  0  0  0  0  0
    0.0800   -2.1595    0.0000 C   0  0  0  0  0  0  0  0  0  0  0  0
    0.5930   -3.5691    0.0000 C   0  0  0  0  0  0  0  0  0  0  0  0
    1.1061   -4.9786    0.0000 C   0  0  0  0  0  0  0  0  0  0  0  0
    1.6191   -6.3882    0.0000 C   0  0  0  0  0  0  0  0  0  0  0  0
    2.1321   -7.7977    0.0000 C   0  0  0  0  0  0  0  0  0  0  0  0
    2.6452   -9.2072    0.0000 C   0  0  0  0  0  0  0  0  0  0  0  0
    3.1582  -10.6168    0.0000 C   0  0  0  0  0  0  0  0  0  0  0  0
    3.6712  -12.0263    0.0000 C   0  0  0  0  0  0  0  0  0  0  0  0
    4.1843  -13.4359    0.0000 N   0  0  0  0  0  0  0  0  0  0  0  0
    3.5417   -7.2847    0.0000 C   0  0  0  0  0  0  0  0  0  0  0  0
    5.0417   -7.2847    0.0000 C   0  0  0  0  0  0  0  0  0  0  0  0
    4.2917   -8.5837    0.0000 C   0  0  0  0  0  0  0  0  0  0  0  0
   -1.3295   -2.6726    0.0000 C   0  0  0  0  0  0  0  0  0  0  0  0
   -2.7391   -3.1856    0.0000 C   0  0  0  0  0  0  0  0  0  0  0  0
   -3.8881   -4.1498    0.0000 C   0  0  0  0  0  0  0  0  0  0  0  0
   -2.4786   -4.6628    0.0000 C   0  0  0  0  0  0  0  0  0  0  0  0
    2.7944    2.2981    0.0000 H   0  0  0  0  0  0  0  0  0  0  0  0
    2.9793    0.1849    0.0000 H   0  0  0  0  0  0  0  0  0  0  0  0
    0.6811    2.1132    0.0000 H   0  0  0  0  0  0  0  0  0  0  0  0
    1.8534   -0.9207    0.0000 H   0  0  0  0  0  0  0  0  0  0  0  0
   -1.1830    2.0490    0.0000 H   0  0  0  0  0  0  0  0  0  0  0  0
   -1.9310   -0.8285    0.0000 H   0  0  0  0  0  0  0  0  0  0  0  0
    1.3954   -1.8559    0.0000 H   0  0  0  0  0  0  0  0  0  0  0  0
   -0.6505   -4.4079    0.0000 H   0  0  0  0  0  0  0  0  0  0  0  0
    2.0026   -3.0560    0.0000 H   0  0  0  0  0  0  0  0  0  0  0  0
    2.5156   -4.4656    0.0000 H   0  0  0  0  0  0  0  0  0  0  0  0
   -0.3035   -5.4916    0.0000 H   0  0  0  0  0  0  0  0  0  0  0  0
    0.2096   -6.9012    0.0000 H   0  0  0  0  0  0  0  0  0  0  0  0
    2.5934   -5.8917    0.0000 H   0  0  0  0  0  0  0  0  0  0  0  0
    0.7226   -8.3107    0.0000 H   0  0  0  0  0  0  0  0  0  0  0  0
    1.2356   -9.7203    0.0000 H   0  0  0  0  0  0  0  0  0  0  0  0
    3.4380   -9.1240    0.0000 H   0  0  0  0  0  0  0  0  0  0  0  0
    1.7487  -11.1298    0.0000 H   0  0  0  0  0  0  0  0  0  0  0  0
    4.5677  -10.1037    0.0000 H   0  0  0  0  0  0  0  0  0  0  0  0
    2.2617  -12.5393    0.0000 H   0  0  0  0  0  0  0  0  0  0  0  0
    5.0808  -11.5133    0.0000 H   0  0  0  0  0  0  0  0  0  0  0  0
    5.6615  -13.6963    0.0000 H   0  0  0  0  0  0  0  0  0  0  0  0
    3.2201  -14.5849    0.0000 H   0  0  0  0  0  0  0  0  0  0  0  0
    3.4845   -6.1927    0.0000 H   0  0  0  0  0  0  0  0  0  0  0  0
    5.3021   -5.8075    0.0000 H   0  0  0  0  0  0  0  0  0  0  0  0
    6.4512   -7.7977    0.0000 H   0  0  0  0  0  0  0  0  0  0  0  0
    5.4407   -9.5479    0.0000 H   0  0  0  0  0  0  0  0  0  0  0  0
    3.5776   -9.5667    0.0000 H   0  0  0  0  0  0  0  0  0  0  0  0
   -0.8165   -4.0821    0.0000 H   0  0  0  0  0  0  0  0  0  0  0  0
   -2.0105   -1.3361    0.0000 H   0  0  0  0  0  0  0  0  0  0  0  0
   -3.4891   -1.8866    0.0000 H   0  0  0  0  0  0  0  0  0  0  0  0
   -5.0372   -3.1856    0.0000 H   0  0  0  0  0  0  0  0  0  0  0  0
   -4.6381   -5.4488    0.0000 H   0  0  0  0  0  0  0  0  0  0  0  0
   -2.7391   -6.1400    0.0000 H   0  0  0  0  0  0  0  0  0  0  0  0
   -1.0232   -5.0258    0.0000 H   0  0  0  0  0  0  0  0  0  0  0  0
  1  2  1  0
  2  3  1  0
  3  4  1  0
  4  5  1  0
  5  6  1  0
  6  7  1  0
  7  8  1  0
  8  9  1  0
  9 10  1  0
 10 11  1  0
 11 12  1  0
 12 13  1  0
  9 14  1  0
 14 15  1  0
 15 16  1  0
  5 17  1  0
 17 18  1  0
 18 19  1  0
 19 20  1  0
  4  2  1  0
 16 14  1  0
 20 18  1  0
  1 21  1  0
  1 22  1  0
  1 23  1  0
  2 24  1  6
  3 25  1  0
  4 26  1  1
  5 27  1  6
  6 28  1  0
  6 29  1  0
  7 30  1  0
  7 31  1  0
  8 32  1  0
  8 33  1  0
  9 34  1  6
 10 35  1  0
 10 36  1  0
 11 37  1  0
 11 38  1  0
 12 39  1  0
 12 40  1  0
 13 41  1  0
 13 42  1  0
 14 43  1  0
 15 44  1  0
 15 45  1  0
 16 46  1  0
 16 47  1  0
 17 48  1  0
 17 49  1  0
 18 50  1  0
 19 51  1  0
 19 52  1  0
 20 53  1  0
 20 54  1  0
M  END
$$$$
