
     RDKit          2D

 28 29  0  0  0  0  0  0  0  0999 V2000
   -2.8978   -2.4055    0.0000 O   0  0  0  0  0  0  0  0  0  0  0  0
   -1.4489   -2.7938    0.0000 C   0  0  0  0  0  0  0  0  0  0  0  0
    0.0000   -3.1820    0.0000 O   0  0  0  0  0  0  0  0  0  0  0  0
    1.0607   -2.1213    0.0000 C   0  0  0  0  0  0  0  0  0  0  0  0
   -0.0000   -1.0607    0.0000 C   0  0  0  0  0  0  0  0  0  0  0  0
    1.0607   -0.0000    0.0000 C   0  0  0  0  0  0  0  0  0  0  0  0
    0.0000    1.0607    0.0000 C   0  0  0  0  0  0  0  0  0  0  0  0
   -1.0607    0.0000    0.0000 C   0  0  0  0  0  0  0  0  0  0  0  0
    2.1213   -3.1820    0.0000 C   0  0  0  0  0  0  0  0  0  0  0  0
    1.0607   -4.2426    0.0000 C   0  0  0  0  0  0  0  0  0  0  0  0
    2.1213   -5.3033    0.0000 O   0  0  0  0  0  0  0  0  0  0  0  0
    3.1820   -4.2426    0.0000 C   0  0  0  0  0  0  0  0  0  0  0  0
   -3.9584   -3.4662    0.0000 H   0  0  0  0  0  0  0  0  0  0  0  0
   -1.3380   -2.0043    0.0000 H   0  0  0  0  0  0  0  0  0  0  0  0
   -1.8371   -4.2426    0.0000 H   0  0  0  0  0  0  0  0  0  0  0  0
    2.2427   -1.1979    0.0000 H   0  0  0  0  0  0  0  0  0  0  0  0
   -0.7283   -1.3848    0.0000 H   0  0  0  0  0  0  0  0  0  0  0  0
    2.1213    1.0607    0.0000 H   0  0  0  0  0  0  0  0  0  0  0  0
    2.2427   -0.9235    0.0000 H   0  0  0  0  0  0  0  0  0  0  0  0
   -1.0607    2.1213    0.0000 H   0  0  0  0  0  0  0  0  0  0  0  0
    1.0607    2.1213    0.0000 H   0  0  0  0  0  0  0  0  0  0  0  0
   -2.1213   -1.0607    0.0000 H   0  0  0  0  0  0  0  0  0  0  0  0
   -2.1213    1.0607    0.0000 H   0  0  0  0  0  0  0  0  0  0  0  0
    3.1820   -2.1213    0.0000 H   0  0  0  0  0  0  0  0  0  0  0  0
    0.0000   -5.3033    0.0000 H   0  0  0  0  0  0  0  0  0  0  0  0
   -0.2251   -3.4702    0.0000 H   0  0  0  0  0  0  0  0  0  0  0  0
    4.2426   -3.1820    0.0000 H   0  0  0  0  0  0  0  0  0  0  0  0
    4.2426   -5.3033    0.0000 H   0  0  0  0  0  0  0  0  0  0  0  0
  1  2  1  0
  2  3  1  0
  3  4  1  0
  4  5  1  0
  5  6  1  0
  6  7  1  0
  7  8  1  0
  4  9  1  0
  9 10  1  0
 10 11  1  0
 11 12  1  0
  8  5  1  0
 12  9  1  0
  1 13  1  0
  2 14  1  0
  2 15  1  0
  4 16  1  0
  5 17  1  0
  6 18  1  0
  6 19  1  0
  7 20  1  0
  7 21  1  0
  8 22  1  0
  8 23  1  0
  9 24  1  0
 10 25  1  0
 10 26  1  0
 12 27  1  0
 12 28  1  0
M  END
$$$$
