
     RDKit          2D

 74 79  0  0  0  0  0  0  0  0999 V2000
   -9.7925  -13.1754    0.0000 C   0  0  0  0  0  0  0  0  0  0  0  0
   -9.2794  -11.7658    0.0000 C   0  0  0  0  0  0  0  0  0  0  0  0
   -8.7664  -10.3563    0.0000 C   0  0  0  0  0  0  0  0  0  0  0  0
   -8.2534   -8.9468    0.0000 C   0  0  0  0  0  0  0  0  0  0  0  0
   -7.7403   -7.5372    0.0000 C   0  0  0  0  0  0  0  0  0  0  0  0
   -7.2273   -6.1277    0.0000 C   0  0  0  0  0  0  0  0  0  0  0  0
   -8.1915   -4.9786    0.0000 C   0  0  0  0  0  0  0  0  0  0  0  0
   -7.6785   -3.5691    0.0000 C   0  0  0  0  0  0  0  0  0  0  0  0
   -7.1654   -2.1595    0.0000 C   0  0  0  0  0  0  0  0  0  0  0  0
   -6.6524   -0.7500    0.0000 C   0  0  0  0  0  0  0  0  0  0  0  0
   -6.6524    0.7500    0.0000 C   0  0  0  0  0  0  0  0  0  0  0  0
   -5.3534    1.5000    0.0000 C   0  0  0  0  0  0  0  0  0  0  0  0
   -4.0543    0.7500    0.0000 C   0  0  0  0  0  0  0  0  0  0  0  0
   -2.9937    1.8107    0.0000 C   0  0  0  0  0  0  0  0  0  0  0  0
   -3.5677    3.1965    0.0000 C   0  0  0  0  0  0  0  0  0  0  0  0
   -1.4937    1.8107    0.0000 C   0  0  0  0  0  0  0  0  0  0  0  0
   -0.4330    0.7500    0.0000 C   0  0  0  0  0  0  0  0  0  0  0  0
    0.8660    0.0000    0.0000 O   0  0  0  0  0  0  0  0  0  0  0  0
   -0.4330   -0.7500    0.0000 C   0  0  0  0  0  0  0  0  0  0  0  0
    0.4801   -1.9400    0.0000 C   0  0  0  0  0  0  0  0  0  0  0  0
    1.3933   -3.1301    0.0000 C   0  0  0  0  0  0  0  0  0  0  0  0
    2.3064   -4.3201    0.0000 C   0  0  0  0  0  0  0  0  0  0  0  0
    2.5833   -2.2169    0.0000 C   0  0  0  0  0  0  0  0  0  0  0  0
    3.7733   -1.3038    0.0000 N   0  0  0  0  0  0  0  0  0  0  0  0
   -1.4937   -1.8107    0.0000 C   0  0  0  0  0  0  0  0  0  0  0  0
   -2.2437   -3.1097    0.0000 C   0  0  0  0  0  0  0  0  0  0  0  0
   -2.9937   -1.8107    0.0000 C   0  0  0  0  0  0  0  0  0  0  0  0
   -4.4426   -2.1989    0.0000 C   0  0  0  0  0  0  0  0  0  0  0  0
   -4.0543   -0.7500    0.0000 C   0  0  0  0  0  0  0  0  0  0  0  0
   -5.3534   -1.5000    0.0000 N   0  0  0  0  0  0  0  0  0  0  0  0
  -10.3055  -14.5849    0.0000 H   0  0  0  0  0  0  0  0  0  0  0  0
   -8.3829  -13.6884    0.0000 H   0  0  0  0  0  0  0  0  0  0  0  0
  -11.2020  -12.6623    0.0000 H   0  0  0  0  0  0  0  0  0  0  0  0
   -7.8699  -12.2789    0.0000 H   0  0  0  0  0  0  0  0  0  0  0  0
  -10.6890  -11.2528    0.0000 H   0  0  0  0  0  0  0  0  0  0  0  0
  -10.1759   -9.8433    0.0000 H   0  0  0  0  0  0  0  0  0  0  0  0
   -7.3569  -10.8693    0.0000 H   0  0  0  0  0  0  0  0  0  0  0  0
   -6.8438   -9.4598    0.0000 H   0  0  0  0  0  0  0  0  0  0  0  0
   -9.6629   -8.4337    0.0000 H   0  0  0  0  0  0  0  0  0  0  0  0
   -6.3308   -8.0503    0.0000 H   0  0  0  0  0  0  0  0  0  0  0  0
   -9.1499   -7.0242    0.0000 H   0  0  0  0  0  0  0  0  0  0  0  0
   -5.7501   -5.8672    0.0000 H   0  0  0  0  0  0  0  0  0  0  0  0
   -9.6687   -5.2391    0.0000 H   0  0  0  0  0  0  0  0  0  0  0  0
   -6.2689   -4.0821    0.0000 H   0  0  0  0  0  0  0  0  0  0  0  0
   -9.0880   -3.0560    0.0000 H   0  0  0  0  0  0  0  0  0  0  0  0
   -5.9219   -2.9984    0.0000 H   0  0  0  0  0  0  0  0  0  0  0  0
   -8.5750   -1.6465    0.0000 H   0  0  0  0  0  0  0  0  0  0  0  0
   -8.1296   -0.4895    0.0000 H   0  0  0  0  0  0  0  0  0  0  0  0
   -8.1296    0.4895    0.0000 H   0  0  0  0  0  0  0  0  0  0  0  0
   -7.1654    2.1595    0.0000 H   0  0  0  0  0  0  0  0  0  0  0  0
   -5.4867    2.5853    0.0000 H   0  0  0  0  0  0  0  0  0  0  0  0
   -4.3924    2.0570    0.0000 H   0  0  0  0  0  0  0  0  0  0  0  0
   -4.1417    4.5823    0.0000 H   0  0  0  0  0  0  0  0  0  0  0  0
   -4.5410    3.0511    0.0000 H   0  0  0  0  0  0  0  0  0  0  0  0
   -2.3927    3.8613    0.0000 H   0  0  0  0  0  0  0  0  0  0  0  0
   -0.1946    2.5607    0.0000 H   0  0  0  0  0  0  0  0  0  0  0  0
   -1.6815    3.1475    0.0000 H   0  0  0  0  0  0  0  0  0  0  0  0
    0.4801    1.9400    0.0000 H   0  0  0  0  0  0  0  0  0  0  0  0
    1.1119   -1.3192    0.0000 H   0  0  0  0  0  0  0  0  0  0  0  0
   -0.5897   -2.9914    0.0000 H   0  0  0  0  0  0  0  0  0  0  0  0
    0.2032   -4.0432    0.0000 H   0  0  0  0  0  0  0  0  0  0  0  0
    3.2196   -5.5101    0.0000 H   0  0  0  0  0  0  0  0  0  0  0  0
    1.1164   -5.2332    0.0000 H   0  0  0  0  0  0  0  0  0  0  0  0
    3.0696   -3.8706    0.0000 H   0  0  0  0  0  0  0  0  0  0  0  0
    3.2041   -2.8487    0.0000 H   0  0  0  0  0  0  0  0  0  0  0  0
    2.1338   -1.4537    0.0000 H   0  0  0  0  0  0  0  0  0  0  0  0
    5.1592   -1.8778    0.0000 H   0  0  0  0  0  0  0  0  0  0  0  0
    3.5775    0.1834    0.0000 H   0  0  0  0  0  0  0  0  0  0  0  0
   -0.4238   -2.8621    0.0000 H   0  0  0  0  0  0  0  0  0  0  0  0
   -1.0946   -4.0739    0.0000 H   0  0  0  0  0  0  0  0  0  0  0  0
   -3.3927   -4.0739    0.0000 H   0  0  0  0  0  0  0  0  0  0  0  0
   -4.3118   -3.6932    0.0000 H   0  0  0  0  0  0  0  0  0  0  0  0
   -5.8844   -2.6125    0.0000 H   0  0  0  0  0  0  0  0  0  0  0  0
   -5.1705   -2.9888    0.0000 H   0  0  0  0  0  0  0  0  0  0  0  0
  1  2  1  0
  2  3  1  0
  3  4  1  0
  4  5  1  0
  5  6  1  0
  6  7  2  3
  7  8  1  0
  8  9  1  0
  9 10  1  0
 10 11  1  0
 11 12  1  0
 12 13  1  0
 13 14  1  0
 14 15  1  1
 14 16  1  0
 16 17  1  0
 17 18  1  0
 18 19  1  0
 19 20  1  6
 20 21  1  0
 21 22  1  0
 21 23  1  0
 23 24  1  0
 19 25  1  0
 25 26  1  0
 27 26  1  1
 27 28  1  0
 28 29  1  0
 29 30  1  6
 30 10  1  0
 14 12  1  0
 19 17  1  0
 27 25  1  0
 29 13  1  0
 29 27  1  0
  1 31  1  0
  1 32  1  0
  1 33  1  0
  2 34  1  0
  2 35  1  0
  3 36  1  0
  3 37  1  0
  4 38  1  0
  4 39  1  0
  5 40  1  0
  5 41  1  0
  6 42  1  0
  7 43  1  0
  8 44  1  0
  8 45  1  0
  9 46  1  0
  9 47  1  0
 10 48  1  6
 11 49  1  0
 11 50  1  0
 12 51  1  1
 13 52  1  1
 15 53  1  0
 15 54  1  0
 15 55  1  0
 16 56  1  0
 16 57  1  0
 17 58  1  6
 20 59  1  0
 20 60  1  0
 21 61  1  6
 22 62  1  0
 22 63  1  0
 22 64  1  0
 23 65  1  0
 23 66  1  0
 24 67  1  0
 24 68  1  0
 25 69  1  6
 26 70  1  0
 26 71  1  0
 28 72  1  0
 28 73  1  0
 30 74  1  0
M  END
$$$$
