
     RDKit          2D

 60 61  0  0  0  0  0  0  0  0999 V2000
   -7.2981    5.0068    0.0000 C   0  0  0  0  0  0  0  0  0  0  0  0
   -7.5586    3.5296    0.0000 C   0  0  0  0  0  0  0  0  0  0  0  0
   -7.8191    2.0524    0.0000 C   0  0  0  0  0  0  0  0  0  0  0  0
   -8.0795    0.5751    0.0000 C   0  0  0  0  0  0  0  0  0  0  0  0
   -8.3400   -0.9021    0.0000 C   0  0  0  0  0  0  0  0  0  0  0  0
   -8.6005   -2.3793    0.0000 C   0  0  0  0  0  0  0  0  0  0  0  0
   -9.8172   -0.6416    0.0000 C   0  0  0  0  0  0  0  0  0  0  0  0
   -6.3419    1.7919    0.0000 C   0  0  0  0  0  0  0  0  0  0  0  0
   -6.6023    0.3147    0.0000 N   0  0  0  0  0  0  0  0  0  0  0  0
   -4.8646    1.5314    0.0000 C   0  0  0  0  0  0  0  0  0  0  0  0
   -3.3874    1.2709    0.0000 C   0  0  0  0  0  0  0  0  0  0  0  0
   -1.9102    1.0105    0.0000 C   0  0  0  0  0  0  0  0  0  0  0  0
   -0.4330    0.7500    0.0000 C   0  0  0  0  0  0  0  0  0  0  0  0
    0.8660    0.0000    0.0000 C   0  0  0  0  0  0  0  0  0  0  0  0
   -0.4330   -0.7500    0.0000 C   0  0  0  0  0  0  0  0  0  0  0  0
   -4.6042    3.0086    0.0000 C   0  0  0  0  0  0  0  0  0  0  0  0
   -4.3437    4.4858    0.0000 O   0  0  0  0  0  0  0  0  0  0  0  0
   -2.9342    4.9989    0.0000 C   0  0  0  0  0  0  0  0  0  0  0  0
   -1.5246    5.5119    0.0000 C   0  0  0  0  0  0  0  0  0  0  0  0
   -0.3756    6.4761    0.0000 N   0  0  0  0  0  0  0  0  0  0  0  0
   -1.7851    6.9891    0.0000 C   0  0  0  0  0  0  0  0  0  0  0  0
   -1.5246    8.4663    0.0000 C   0  0  0  0  0  0  0  0  0  0  0  0
   -7.0377    6.4840    0.0000 H   0  0  0  0  0  0  0  0  0  0  0  0
   -8.7753    5.2673    0.0000 H   0  0  0  0  0  0  0  0  0  0  0  0
   -5.8209    4.7463    0.0000 H   0  0  0  0  0  0  0  0  0  0  0  0
   -8.3209    3.7627    0.0000 H   0  0  0  0  0  0  0  0  0  0  0  0
   -8.3547    3.5713    0.0000 H   0  0  0  0  0  0  0  0  0  0  0  0
   -9.2963    2.3128    0.0000 H   0  0  0  0  0  0  0  0  0  0  0  0
   -9.5140    1.0137    0.0000 H   0  0  0  0  0  0  0  0  0  0  0  0
   -6.7093   -0.0350    0.0000 H   0  0  0  0  0  0  0  0  0  0  0  0
   -6.8628   -1.1625    0.0000 H   0  0  0  0  0  0  0  0  0  0  0  0
   -8.8610   -3.8565    0.0000 H   0  0  0  0  0  0  0  0  0  0  0  0
   -7.1233   -2.6397    0.0000 H   0  0  0  0  0  0  0  0  0  0  0  0
  -10.0984   -2.3008    0.0000 H   0  0  0  0  0  0  0  0  0  0  0  0
  -11.2944   -0.3811    0.0000 H   0  0  0  0  0  0  0  0  0  0  0  0
  -10.2558   -2.0760    0.0000 H   0  0  0  0  0  0  0  0  0  0  0  0
   -9.7388    0.8564    0.0000 H   0  0  0  0  0  0  0  0  0  0  0  0
   -6.2634    3.2898    0.0000 H   0  0  0  0  0  0  0  0  0  0  0  0
   -7.6059   -0.8001    0.0000 H   0  0  0  0  0  0  0  0  0  0  0  0
   -5.5794   -0.7824    0.0000 H   0  0  0  0  0  0  0  0  0  0  0  0
   -4.9431    0.0335    0.0000 H   0  0  0  0  0  0  0  0  0  0  0  0
   -3.6479   -0.2063    0.0000 H   0  0  0  0  0  0  0  0  0  0  0  0
   -2.9488    2.7054    0.0000 H   0  0  0  0  0  0  0  0  0  0  0  0
   -2.3488   -0.4240    0.0000 H   0  0  0  0  0  0  0  0  0  0  0  0
   -1.6498    2.4877    0.0000 H   0  0  0  0  0  0  0  0  0  0  0  0
    0.0800    2.1595    0.0000 H   0  0  0  0  0  0  0  0  0  0  0  0
    1.8302    1.1491    0.0000 H   0  0  0  0  0  0  0  0  0  0  0  0
    1.8302   -1.1491    0.0000 H   0  0  0  0  0  0  0  0  0  0  0  0
    0.0800   -2.1595    0.0000 H   0  0  0  0  0  0  0  0  0  0  0  0
   -1.8675   -1.1886    0.0000 H   0  0  0  0  0  0  0  0  0  0  0  0
   -6.0386    3.4472    0.0000 H   0  0  0  0  0  0  0  0  0  0  0  0
   -3.1062    2.9302    0.0000 H   0  0  0  0  0  0  0  0  0  0  0  0
   -2.4211    3.5893    0.0000 H   0  0  0  0  0  0  0  0  0  0  0  0
   -3.6152    6.3354    0.0000 H   0  0  0  0  0  0  0  0  0  0  0  0
   -0.7746    4.2129    0.0000 H   0  0  0  0  0  0  0  0  0  0  0  0
    1.1017    6.7366    0.0000 H   0  0  0  0  0  0  0  0  0  0  0  0
   -3.2739    7.1720    0.0000 H   0  0  0  0  0  0  0  0  0  0  0  0
   -1.2642    9.9435    0.0000 H   0  0  0  0  0  0  0  0  0  0  0  0
   -3.0018    8.7268    0.0000 H   0  0  0  0  0  0  0  0  0  0  0  0
   -0.0474    8.2059    0.0000 H   0  0  0  0  0  0  0  0  0  0  0  0
  1  2  1  0
  2  3  1  0
  3  4  1  0
  4  5  1  0
  5  6  1  0
  5  7  1  0
  3  8  1  0
  8  9  1  0
  8 10  1  0
 10 11  1  0
 11 12  1  0
 12 13  1  0
 13 14  1  0
 14 15  1  0
 10 16  1  0
 16 17  1  0
 17 18  1  0
 18 19  1  0
 19 20  1  0
 20 21  1  0
 21 22  1  0
 15 13  1  0
 21 19  1  0
  1 23  1  0
  1 24  1  0
  1 25  1  0
  2 26  1  0
  2 27  1  0
  3 28  1  1
  4 29  1  0
  4 30  1  0
  5 31  1  0
  6 32  1  0
  6 33  1  0
  6 34  1  0
  7 35  1  0
  7 36  1  0
  7 37  1  0
  8 38  1  6
  9 39  1  0
  9 40  1  0
 10 41  1  1
 11 42  1  0
 11 43  1  0
 12 44  1  0
 12 45  1  0
 13 46  1  0
 14 47  1  0
 14 48  1  0
 15 49  1  0
 15 50  1  0
 16 51  1  0
 16 52  1  0
 18 53  1  0
 18 54  1  0
 19 55  1  1
 20 56  1  0
 21 57  1  6
 22 58  1  0
 22 59  1  0
 22 60  1  0
M  END
$$$$
