
     RDKit          2D

 30 31  0  0  0  0  0  0  0  0999 V2000
    2.1213    1.0607    0.0000 C   0  0  0  0  0  0  0  0  0  0  0  0
    1.0607    0.0000    0.0000 C   0  0  0  0  0  0  0  0  0  0  0  0
   -0.0000   -1.0607    0.0000 C   0  0  0  0  0  0  0  0  0  0  0  0
   -1.0607    0.0000    0.0000 C   0  0  0  0  0  0  0  0  0  0  0  0
   -2.5512    0.1679    0.0000 C   0  0  0  0  0  0  0  0  0  0  0  0
   -3.3493    1.4380    0.0000 C   0  0  0  0  0  0  0  0  0  0  0  0
   -2.8539    2.8539    0.0000 C   0  0  0  0  0  0  0  0  0  0  0  0
   -4.3444    3.0218    0.0000 C   0  0  0  0  0  0  0  0  0  0  0  0
   -5.8350    3.1898    0.0000 O   0  0  0  0  0  0  0  0  0  0  0  0
   -1.4380    3.3493    0.0000 C   0  0  0  0  0  0  0  0  0  0  0  0
   -0.1679    2.5512    0.0000 C   0  0  0  0  0  0  0  0  0  0  0  0
    0.0000    1.0607    0.0000 C   0  0  0  0  0  0  0  0  0  0  0  0
    3.1820    2.1213    0.0000 H   0  0  0  0  0  0  0  0  0  0  0  0
    3.1820    0.0000    0.0000 H   0  0  0  0  0  0  0  0  0  0  0  0
    1.7108    1.7440    0.0000 H   0  0  0  0  0  0  0  0  0  0  0  0
    2.1213   -1.0607    0.0000 H   0  0  0  0  0  0  0  0  0  0  0  0
    1.0607   -2.1213    0.0000 H   0  0  0  0  0  0  0  0  0  0  0  0
   -1.0607   -2.1213    0.0000 H   0  0  0  0  0  0  0  0  0  0  0  0
   -1.7115   -1.3515    0.0000 H   0  0  0  0  0  0  0  0  0  0  0  0
   -3.3493   -1.1021    0.0000 H   0  0  0  0  0  0  0  0  0  0  0  0
   -4.2108    1.2323    0.0000 H   0  0  0  0  0  0  0  0  0  0  0  0
   -3.2022    4.3128    0.0000 H   0  0  0  0  0  0  0  0  0  0  0  0
   -4.1765    4.5124    0.0000 H   0  0  0  0  0  0  0  0  0  0  0  0
   -4.5501    2.1603    0.0000 H   0  0  0  0  0  0  0  0  0  0  0  0
   -6.4348    4.5646    0.0000 H   0  0  0  0  0  0  0  0  0  0  0  0
   -2.0753    4.7072    0.0000 H   0  0  0  0  0  0  0  0  0  0  0  0
   -0.5146    4.5313    0.0000 H   0  0  0  0  0  0  0  0  0  0  0  0
    0.4964    3.8961    0.0000 H   0  0  0  0  0  0  0  0  0  0  0  0
    0.9160    2.6954    0.0000 H   0  0  0  0  0  0  0  0  0  0  0  0
    0.9852    1.5351    0.0000 H   0  0  0  0  0  0  0  0  0  0  0  0
  1  2  1  0
  2  3  1  0
  3  4  1  0
  4  5  1  0
  5  6  2  0
  6  7  1  0
  7  8  1  0
  8  9  1  0
  7 10  1  0
 10 11  1  0
 11 12  1  0
 12  2  1  0
 12  4  1  0
  1 13  1  0
  1 14  1  0
  1 15  1  0
  2 16  1  0
  3 17  1  0
  3 18  1  0
  4 19  1  0
  5 20  1  0
  6 21  1  0
  7 22  1  0
  8 23  1  0
  8 24  1  0
  9 25  1  0
 10 26  1  0
 10 27  1  0
 11 28  1  0
 11 29  1  0
 12 30  1  0
M  END
$$$$
