
     RDKit          2D

 35 37  0  0  0  0  0  0  0  0999 V2000
    2.4383    5.7233    0.0000 C   0  0  0  0  0  0  0  0  0  0  0  0
    0.9894    5.3350    0.0000 C   0  0  0  0  0  0  0  0  0  0  0  0
   -0.4595    4.9468    0.0000 C   0  0  0  0  0  0  0  0  0  0  0  0
   -1.9084    4.5586    0.0000 C   0  0  0  0  0  0  0  0  0  0  0  0
   -3.3572    4.1704    0.0000 O   0  0  0  0  0  0  0  0  0  0  0  0
   -0.0712    3.4979    0.0000 C   0  0  0  0  0  0  0  0  0  0  0  0
    0.3170    2.0490    0.0000 C   0  0  0  0  0  0  0  0  0  0  0  0
    1.6160    1.2990    0.0000 C   0  0  0  0  0  0  0  0  0  0  0  0
    0.8660    0.0000    0.0000 C   0  0  0  0  0  0  0  0  0  0  0  0
    1.9267   -1.0607    0.0000 C   0  0  0  0  0  0  0  0  0  0  0  0
   -0.4330    0.7500    0.0000 C   0  0  0  0  0  0  0  0  0  0  0  0
   -0.4330   -0.7500    0.0000 N   0  0  0  0  0  0  0  0  0  0  0  0
   -1.6910    0.0670    0.0000 C   0  0  0  0  0  0  0  0  0  0  0  0
   -2.3720   -1.2696    0.0000 O   0  0  0  0  0  0  0  0  0  0  0  0
   -1.3028    1.5158    0.0000 N   0  0  0  0  0  0  0  0  0  0  0  0
    3.8872    6.1115    0.0000 H   0  0  0  0  0  0  0  0  0  0  0  0
    2.0501    7.1722    0.0000 H   0  0  0  0  0  0  0  0  0  0  0  0
    2.8265    4.2744    0.0000 H   0  0  0  0  0  0  0  0  0  0  0  0
    1.3212    4.5138    0.0000 H   0  0  0  0  0  0  0  0  0  0  0  0
    0.6012    6.7839    0.0000 H   0  0  0  0  0  0  0  0  0  0  0  0
   -0.8477    6.3957    0.0000 H   0  0  0  0  0  0  0  0  0  0  0  0
   -2.2966    6.0075    0.0000 H   0  0  0  0  0  0  0  0  0  0  0  0
   -1.8912    3.5746    0.0000 H   0  0  0  0  0  0  0  0  0  0  0  0
   -4.4179    5.2310    0.0000 H   0  0  0  0  0  0  0  0  0  0  0  0
   -1.0219    3.2432    0.0000 H   0  0  0  0  0  0  0  0  0  0  0  0
    0.8059    3.6212    0.0000 H   0  0  0  0  0  0  0  0  0  0  0  0
    2.8587    0.7716    0.0000 H   0  0  0  0  0  0  0  0  0  0  0  0
    2.3660    2.5981    0.0000 H   0  0  0  0  0  0  0  0  0  0  0  0
    2.9873   -2.1213    0.0000 H   0  0  0  0  0  0  0  0  0  0  0  0
    0.8660   -2.1213    0.0000 H   0  0  0  0  0  0  0  0  0  0  0  0
    2.9905   -0.2295    0.0000 H   0  0  0  0  0  0  0  0  0  0  0  0
   -1.3186    0.7654    0.0000 H   0  0  0  0  0  0  0  0  0  0  0  0
   -3.0914    0.6045    0.0000 H   0  0  0  0  0  0  0  0  0  0  0  0
   -3.8699   -1.3481    0.0000 H   0  0  0  0  0  0  0  0  0  0  0  0
   -2.5008    2.4185    0.0000 H   0  0  0  0  0  0  0  0  0  0  0  0
  1  2  1  0
  2  3  1  0
  3  4  1  0
  4  5  1  0
  3  6  1  0
  6  7  1  0
  7  8  1  0
  8  9  1  0
  9 10  1  0
  9 11  1  0
 11 12  1  0
 12 13  1  0
 13 14  1  0
 13 15  1  0
 11  7  1  0
 15  7  1  0
 12  9  1  0
  1 16  1  0
  1 17  1  0
  1 18  1  0
  2 19  1  0
  2 20  1  0
  3 21  1  0
  4 22  1  0
  4 23  1  0
  5 24  1  0
  6 25  1  0
  6 26  1  0
  8 27  1  0
  8 28  1  0
 10 29  1  0
 10 30  1  0
 10 31  1  0
 11 32  1  0
 13 33  1  0
 14 34  1  0
 15 35  1  0
M  END
$$$$
