
     RDKit          2D

 74 79  0  0  0  0  0  0  0  0999 V2000
    3.1820   -0.0000    0.0000 C   0  0  0  0  0  0  0  0  0  0  0  0
    2.1213   -1.0607    0.0000 C   0  0  0  0  0  0  0  0  0  0  0  0
    1.0607   -2.1213    0.0000 C   0  0  0  0  0  0  0  0  0  0  0  0
    0.0000   -3.1820    0.0000 C   0  0  0  0  0  0  0  0  0  0  0  0
   -1.0607   -4.2426    0.0000 C   0  0  0  0  0  0  0  0  0  0  0  0
   -2.1213   -5.3033    0.0000 C   0  0  0  0  0  0  0  0  0  0  0  0
   -3.1820   -6.3640    0.0000 C   0  0  0  0  0  0  0  0  0  0  0  0
   -4.2426   -7.4246    0.0000 C   0  0  0  0  0  0  0  0  0  0  0  0
   -3.3823   -8.6533    0.0000 C   0  0  0  0  0  0  0  0  0  0  0  0
   -2.7962  -10.0341    0.0000 O   0  0  0  0  0  0  0  0  0  0  0  0
   -3.9282  -11.0182    0.0000 C   0  0  0  0  0  0  0  0  0  0  0  0
   -5.2402  -11.7454    0.0000 O   0  0  0  0  0  0  0  0  0  0  0  0
   -5.2140  -10.2456    0.0000 C   0  0  0  0  0  0  0  0  0  0  0  0
   -6.7028  -10.0628    0.0000 C   0  0  0  0  0  0  0  0  0  0  0  0
   -8.1916   -9.8800    0.0000 C   0  0  0  0  0  0  0  0  0  0  0  0
   -9.6805   -9.6972    0.0000 C   0  0  0  0  0  0  0  0  0  0  0  0
   -8.0088   -8.3912    0.0000 C   0  0  0  0  0  0  0  0  0  0  0  0
   -8.3744  -11.3688    0.0000 C   0  0  0  0  0  0  0  0  0  0  0  0
   -8.5572  -12.8577    0.0000 O   0  0  0  0  0  0  0  0  0  0  0  0
   -7.3593  -13.7604    0.0000 O   0  0  0  0  0  0  0  0  0  0  0  0
   -4.8766   -8.7841    0.0000 C   0  0  0  0  0  0  0  0  0  0  0  0
   -0.0000   -1.0607    0.0000 C   0  0  0  0  0  0  0  0  0  0  0  0
   -1.0607   -2.1213    0.0000 C   0  0  0  0  0  0  0  0  0  0  0  0
    1.0607   -0.0000    0.0000 C   0  0  0  0  0  0  0  0  0  0  0  0
    0.0000    1.0607    0.0000 C   0  0  0  0  0  0  0  0  0  0  0  0
   -0.6810    2.3972    0.0000 C   0  0  0  0  0  0  0  0  0  0  0  0
   -0.9156    3.8787    0.0000 C   0  0  0  0  0  0  0  0  0  0  0  0
   -2.3972    3.6441    0.0000 N   0  0  0  0  0  0  0  0  0  0  0  0
   -2.1625    2.1625    0.0000 C   0  0  0  0  0  0  0  0  0  0  0  0
   -2.3972    0.6810    0.0000 C   0  0  0  0  0  0  0  0  0  0  0  0
   -1.0607    0.0000    0.0000 C   0  0  0  0  0  0  0  0  0  0  0  0
    4.2426    1.0607    0.0000 H   0  0  0  0  0  0  0  0  0  0  0  0
    4.2426   -1.0607    0.0000 H   0  0  0  0  0  0  0  0  0  0  0  0
    2.2585    1.1820    0.0000 H   0  0  0  0  0  0  0  0  0  0  0  0
    1.7108   -0.3773    0.0000 H   0  0  0  0  0  0  0  0  0  0  0  0
    3.1820   -2.1213    0.0000 H   0  0  0  0  0  0  0  0  0  0  0  0
    2.1213   -3.1820    0.0000 H   0  0  0  0  0  0  0  0  0  0  0  0
    1.0607   -4.2426    0.0000 H   0  0  0  0  0  0  0  0  0  0  0  0
   -1.2858   -2.4095    0.0000 H   0  0  0  0  0  0  0  0  0  0  0  0
   -0.0000   -5.3033    0.0000 H   0  0  0  0  0  0  0  0  0  0  0  0
   -2.2427   -3.3192    0.0000 H   0  0  0  0  0  0  0  0  0  0  0  0
   -3.1820   -4.2426    0.0000 H   0  0  0  0  0  0  0  0  0  0  0  0
   -1.0607   -6.3640    0.0000 H   0  0  0  0  0  0  0  0  0  0  0  0
   -1.9999   -7.2874    0.0000 H   0  0  0  0  0  0  0  0  0  0  0  0
   -4.2426   -5.3033    0.0000 H   0  0  0  0  0  0  0  0  0  0  0  0
   -5.4714   -6.5643    0.0000 H   0  0  0  0  0  0  0  0  0  0  0  0
   -1.9915   -8.0915    0.0000 H   0  0  0  0  0  0  0  0  0  0  0  0
   -3.0679  -12.2469    0.0000 H   0  0  0  0  0  0  0  0  0  0  0  0
   -6.7028  -11.5628    0.0000 H   0  0  0  0  0  0  0  0  0  0  0  0
   -6.7029   -8.5628    0.0000 H   0  0  0  0  0  0  0  0  0  0  0  0
  -11.1693   -9.5144    0.0000 H   0  0  0  0  0  0  0  0  0  0  0  0
  -10.2181  -11.0976    0.0000 H   0  0  0  0  0  0  0  0  0  0  0  0
   -9.8633  -11.1860    0.0000 H   0  0  0  0  0  0  0  0  0  0  0  0
   -7.8260   -6.9024    0.0000 H   0  0  0  0  0  0  0  0  0  0  0  0
   -9.4643   -8.0283    0.0000 H   0  0  0  0  0  0  0  0  0  0  0  0
   -9.5088   -8.3913    0.0000 H   0  0  0  0  0  0  0  0  0  0  0  0
   -9.8632  -11.5517    0.0000 H   0  0  0  0  0  0  0  0  0  0  0  0
   -6.9190  -11.7318    0.0000 H   0  0  0  0  0  0  0  0  0  0  0  0
   -7.5421  -15.2492    0.0000 H   0  0  0  0  0  0  0  0  0  0  0  0
   -6.2247   -8.1265    0.0000 H   0  0  0  0  0  0  0  0  0  0  0  0
   -2.2427   -3.0448    0.0000 H   0  0  0  0  0  0  0  0  0  0  0  0
   -0.2882   -3.4071    0.0000 H   0  0  0  0  0  0  0  0  0  0  0  0
   -2.3465   -1.3488    0.0000 H   0  0  0  0  0  0  0  0  0  0  0  0
    1.9841    1.1820    0.0000 H   0  0  0  0  0  0  0  0  0  0  0  0
    2.3465   -0.7725    0.0000 H   0  0  0  0  0  0  0  0  0  0  0  0
    1.2135    1.9423    0.0000 H   0  0  0  0  0  0  0  0  0  0  0  0
    0.7456    2.8607    0.0000 H   0  0  0  0  0  0  0  0  0  0  0  0
   -1.1503    5.3602    0.0000 H   0  0  0  0  0  0  0  0  0  0  0  0
    0.5659    4.1134    0.0000 H   0  0  0  0  0  0  0  0  0  0  0  0
   -3.6107    4.5257    0.0000 H   0  0  0  0  0  0  0  0  0  0  0  0
   -3.6625    2.1625    0.0000 H   0  0  0  0  0  0  0  0  0  0  0  0
   -3.8461    1.0692    0.0000 H   0  0  0  0  0  0  0  0  0  0  0  0
   -3.1014   -0.6434    0.0000 H   0  0  0  0  0  0  0  0  0  0  0  0
   -2.0837   -1.0970    0.0000 H   0  0  0  0  0  0  0  0  0  0  0  0
  1  2  1  0
  2  3  1  0
  3  4  1  0
  4  5  1  0
  5  6  1  0
  6  7  1  0
  7  8  1  0
  8  9  1  0
  9 10  1  0
 10 11  1  0
 11 12  1  0
 12 13  1  0
 13 14  1  6
 14 15  1  0
 15 16  1  0
 15 17  1  0
 15 18  1  0
 18 19  1  0
 19 20  1  0
 13 21  1  0
  3 22  1  0
 22 23  1  1
 22 24  1  0
 24 25  1  0
 25 26  1  0
 26 27  1  0
 27 28  1  0
 28 29  1  0
 29 30  1  0
 30 31  1  0
 21  8  1  0
 31 22  1  0
 21  9  1  0
 31 25  1  0
 13 11  1  0
 29 26  1  0
  1 32  1  0
  1 33  1  0
  1 34  1  0
  2 35  1  0
  2 36  1  0
  3 37  1  6
  4 38  1  0
  4 39  1  0
  5 40  1  0
  5 41  1  0
  6 42  1  0
  6 43  1  0
  7 44  1  0
  7 45  1  0
  8 46  1  6
  9 47  1  1
 11 48  1  6
 14 49  1  0
 14 50  1  0
 16 51  1  0
 16 52  1  0
 16 53  1  0
 17 54  1  0
 17 55  1  0
 17 56  1  0
 18 57  1  0
 18 58  1  0
 20 59  1  0
 21 60  1  1
 23 61  1  0
 23 62  1  0
 23 63  1  0
 24 64  1  0
 24 65  1  0
 25 66  1  0
 26 67  1  1
 27 68  1  0
 27 69  1  0
 28 70  1  0
 29 71  1  1
 30 72  1  0
 30 73  1  0
 31 74  1  1
M  END
$$$$
