
     RDKit          2D

 24 25  0  0  0  0  0  0  0  0999 V2000
   -4.9578    2.2500    0.0000 C   0  0  0  0  0  0  0  0  0  0  0  0
   -3.6587    1.5000    0.0000 C   0  0  0  0  0  0  0  0  0  0  0  0
   -2.9087    2.7990    0.0000 O   0  0  0  0  0  0  0  0  0  0  0  0
   -2.3597    0.7500    0.0000 C   0  0  0  0  0  0  0  0  0  0  0  0
   -1.0607    0.0000    0.0000 C   0  0  0  0  0  0  0  0  0  0  0  0
   -1.4489   -1.4489    0.0000 C   0  0  0  0  0  0  0  0  0  0  0  0
   -0.0000   -1.0607    0.0000 C   0  0  0  0  0  0  0  0  0  0  0  0
    1.0607    0.0000    0.0000 O   0  0  0  0  0  0  0  0  0  0  0  0
    0.0000    1.0607    0.0000 C   0  0  0  0  0  0  0  0  0  0  0  0
   -1.0607    2.1213    0.0000 O   0  0  0  0  0  0  0  0  0  0  0  0
   -0.6724    3.5702    0.0000 Se  0  0  0  0  0  2  0  0  0  0  0  0
   -1.7331    4.6309    0.0000 O   0  0  0  0  0  0  0  0  0  0  0  0
   -6.2568    3.0000    0.0000 H   0  0  0  0  0  0  0  0  0  0  0  0
   -5.7078    0.9510    0.0000 H   0  0  0  0  0  0  0  0  0  0  0  0
   -4.3717    3.6308    0.0000 H   0  0  0  0  0  0  0  0  0  0  0  0
   -4.4087    0.2010    0.0000 H   0  0  0  0  0  0  0  0  0  0  0  0
   -3.4948    4.1798    0.0000 H   0  0  0  0  0  0  0  0  0  0  0  0
   -3.2625   -0.4479    0.0000 H   0  0  0  0  0  0  0  0  0  0  0  0
   -1.9877    2.0477    0.0000 H   0  0  0  0  0  0  0  0  0  0  0  0
   -2.9480   -1.5013    0.0000 H   0  0  0  0  0  0  0  0  0  0  0  0
   -1.3182   -2.9432    0.0000 H   0  0  0  0  0  0  0  0  0  0  0  0
    0.7500   -2.3597    0.0000 H   0  0  0  0  0  0  0  0  0  0  0  0
    1.0607    2.1213    0.0000 H   0  0  0  0  0  0  0  0  0  0  0  0
   -1.3449    6.0798    0.0000 H   0  0  0  0  0  0  0  0  0  0  0  0
  1  2  1  0
  2  3  1  0
  2  4  1  0
  4  5  1  0
  5  6  1  0
  6  7  1  0
  7  8  1  0
  8  9  1  0
  9 10  1  0
 10 11  1  0
 11 12  1  0
  7  5  1  0
  9  5  1  0
  1 13  1  0
  1 14  1  0
  1 15  1  0
  2 16  1  0
  3 17  1  0
  4 18  1  0
  4 19  1  0
  6 20  1  0
  6 21  1  0
  7 22  1  0
  9 23  1  0
 12 24  1  0
M  END
$$$$
