
     RDKit          2D

 43 46  0  0  0  0  0  0  0  0999 V2000
    2.7944    2.2981    0.0000 C   0  0  0  0  0  0  0  0  0  0  0  0
    1.8302    1.1491    0.0000 C   0  0  0  0  0  0  0  0  0  0  0  0
    0.8660    0.0000    0.0000 C   0  0  0  0  0  0  0  0  0  0  0  0
   -0.4330    0.7500    0.0000 C   0  0  0  0  0  0  0  0  0  0  0  0
   -1.9330    0.7500    0.0000 C   0  0  0  0  0  0  0  0  0  0  0  0
   -3.2321    1.5000    0.0000 C   0  0  0  0  0  0  0  0  0  0  0  0
   -4.5311    0.7500    0.0000 C   0  0  0  0  0  0  0  0  0  0  0  0
   -4.5311   -0.7500    0.0000 C   0  0  0  0  0  0  0  0  0  0  0  0
   -3.2321   -1.5000    0.0000 C   0  0  0  0  0  0  0  0  0  0  0  0
   -1.9330   -0.7500    0.0000 C   0  0  0  0  0  0  0  0  0  0  0  0
   -0.4330   -0.7500    0.0000 C   0  0  0  0  0  0  0  0  0  0  0  0
    0.6811    2.1132    0.0000 C   0  0  0  0  0  0  0  0  0  0  0  0
   -0.0689    3.4123    0.0000 O   0  0  0  0  0  0  0  0  0  0  0  0
    1.4311    3.4123    0.0000 C   0  0  0  0  0  0  0  0  0  0  0  0
    1.6916    4.8895    0.0000 C   0  0  0  0  0  0  0  0  0  0  0  0
    2.8407    2.8993    0.0000 C   0  0  0  0  0  0  0  0  0  0  0  0
    4.2502    2.3862    0.0000 O   0  0  0  0  0  0  0  0  0  0  0  0
    5.3993    3.3504    0.0000 C   0  0  0  0  0  0  0  0  0  0  0  0
    6.8088    2.8374    0.0000 O   0  0  0  0  0  0  0  0  0  0  0  0
    3.7586    3.4472    0.0000 H   0  0  0  0  0  0  0  0  0  0  0  0
    3.9435    1.3340    0.0000 H   0  0  0  0  0  0  0  0  0  0  0  0
    1.9128    3.5117    0.0000 H   0  0  0  0  0  0  0  0  0  0  0  0
    2.9793    0.1849    0.0000 H   0  0  0  0  0  0  0  0  0  0  0  0
    1.8302   -1.1491    0.0000 H   0  0  0  0  0  0  0  0  0  0  0  0
   -0.4069    2.2498    0.0000 H   0  0  0  0  0  0  0  0  0  0  0  0
   -1.3711    2.1408    0.0000 H   0  0  0  0  0  0  0  0  0  0  0  0
   -4.1962    2.6491    0.0000 H   0  0  0  0  0  0  0  0  0  0  0  0
   -2.4151    2.7580    0.0000 H   0  0  0  0  0  0  0  0  0  0  0  0
   -6.0083    0.4895    0.0000 H   0  0  0  0  0  0  0  0  0  0  0  0
   -5.0441    2.1595    0.0000 H   0  0  0  0  0  0  0  0  0  0  0  0
   -5.0441   -2.1595    0.0000 H   0  0  0  0  0  0  0  0  0  0  0  0
   -6.0083   -0.4895    0.0000 H   0  0  0  0  0  0  0  0  0  0  0  0
   -2.4151   -2.7580    0.0000 H   0  0  0  0  0  0  0  0  0  0  0  0
   -4.1962   -2.6491    0.0000 H   0  0  0  0  0  0  0  0  0  0  0  0
   -1.3711   -2.1408    0.0000 H   0  0  0  0  0  0  0  0  0  0  0  0
   -0.0448   -2.1989    0.0000 H   0  0  0  0  0  0  0  0  0  0  0  0
   -0.6671    1.4558    0.0000 H   0  0  0  0  0  0  0  0  0  0  0  0
    1.9521    6.3667    0.0000 H   0  0  0  0  0  0  0  0  0  0  0  0
    0.2144    5.1500    0.0000 H   0  0  0  0  0  0  0  0  0  0  0  0
    3.1896    4.8110    0.0000 H   0  0  0  0  0  0  0  0  0  0  0  0
    3.5217    4.2357    0.0000 H   0  0  0  0  0  0  0  0  0  0  0  0
    2.6840    1.4075    0.0000 H   0  0  0  0  0  0  0  0  0  0  0  0
    5.1388    4.8276    0.0000 H   0  0  0  0  0  0  0  0  0  0  0  0
  1  2  1  0
  2  3  1  0
  3  4  1  0
  4  5  1  0
  5  6  1  0
  6  7  1  0
  7  8  1  0
  8  9  1  0
  9 10  1  0
 10 11  1  0
  2 12  1  0
 12 13  1  0
 13 14  1  0
 14 15  1  0
 14 16  1  0
 16 17  1  0
 17 18  1  0
 18 19  2  0
 11  3  1  0
 14 12  1  0
 11  4  1  0
 10  5  1  0
  1 20  1  0
  1 21  1  0
  1 22  1  0
  2 23  1  0
  3 24  1  0
  4 25  1  0
  5 26  1  0
  6 27  1  0
  6 28  1  0
  7 29  1  0
  7 30  1  0
  8 31  1  0
  8 32  1  0
  9 33  1  0
  9 34  1  0
 10 35  1  0
 11 36  1  0
 12 37  1  0
 15 38  1  0
 15 39  1  0
 15 40  1  0
 16 41  1  0
 16 42  1  0
 18 43  1  0
M  END
$$$$
