
     RDKit          2D

 31 31  0  0  0  0  0  0  0  0999 V2000
    2.2253    6.4680    0.0000 C   0  0  0  0  0  0  0  0  0  0  0  0
    1.8371    5.0191    0.0000 C   0  0  0  0  0  0  0  0  0  0  0  0
    1.4489    3.5702    0.0000 C   0  0  0  0  0  0  0  0  0  0  0  0
    1.0607    2.1213    0.0000 N   0  0  0  0  0  0  0  0  0  0  0  0
   -0.3882    1.7331    0.0000 C   0  0  0  0  0  0  0  0  0  0  0  0
    2.1213    1.0607    0.0000 C   0  0  0  0  0  0  0  0  0  0  0  0
    3.1820    2.1213    0.0000 C   0  0  0  0  0  0  0  0  0  0  0  0
    1.0607   -0.0000    0.0000 C   0  0  0  0  0  0  0  0  0  0  0  0
    0.0000   -1.0607    0.0000 C   0  0  0  0  0  0  0  0  0  0  0  0
    1.0607   -2.1213    0.0000 O   0  0  0  0  0  0  0  0  0  0  0  0
    2.1213   -1.0607    0.0000 C   0  0  0  0  0  0  0  0  0  0  0  0
    3.1820   -2.1213    0.0000 O   0  0  0  0  0  0  0  0  0  0  0  0
    2.6136    7.9169    0.0000 H   0  0  0  0  0  0  0  0  0  0  0  0
    0.7765    6.8562    0.0000 H   0  0  0  0  0  0  0  0  0  0  0  0
    3.6742    6.0798    0.0000 H   0  0  0  0  0  0  0  0  0  0  0  0
    0.3882    5.4073    0.0000 H   0  0  0  0  0  0  0  0  0  0  0  0
    3.2860    4.6309    0.0000 H   0  0  0  0  0  0  0  0  0  0  0  0
    2.2383    3.4593    0.0000 H   0  0  0  0  0  0  0  0  0  0  0  0
    0.0000    3.9584    0.0000 H   0  0  0  0  0  0  0  0  0  0  0  0
   -1.8371    1.3449    0.0000 H   0  0  0  0  0  0  0  0  0  0  0  0
   -0.7765    3.1820    0.0000 H   0  0  0  0  0  0  0  0  0  0  0  0
   -0.1795    0.2477    0.0000 H   0  0  0  0  0  0  0  0  0  0  0  0
    3.3034    0.1372    0.0000 H   0  0  0  0  0  0  0  0  0  0  0  0
    4.2426    3.1820    0.0000 H   0  0  0  0  0  0  0  0  0  0  0  0
    4.2426    1.0607    0.0000 H   0  0  0  0  0  0  0  0  0  0  0  0
    2.8578    2.8496    0.0000 H   0  0  0  0  0  0  0  0  0  0  0  0
   -0.3097    0.6100    0.0000 H   0  0  0  0  0  0  0  0  0  0  0  0
   -1.0607   -0.0000    0.0000 H   0  0  0  0  0  0  0  0  0  0  0  0
   -1.0607   -2.1213    0.0000 H   0  0  0  0  0  0  0  0  0  0  0  0
    3.3034   -0.1372    0.0000 H   0  0  0  0  0  0  0  0  0  0  0  0
    4.6309   -1.7331    0.0000 H   0  0  0  0  0  0  0  0  0  0  0  0
  1  2  1  0
  2  3  1  0
  3  4  1  0
  4  5  1  0
  4  6  1  0
  6  7  1  0
  6  8  1  0
  8  9  1  0
  9 10  1  0
 10 11  1  0
 11 12  1  0
 11  8  1  0
  1 13  1  0
  1 14  1  0
  1 15  1  0
  2 16  1  0
  2 17  1  0
  3 18  1  0
  3 19  1  0
  5 20  1  0
  5 21  1  0
  5 22  1  0
  6 23  1  0
  7 24  1  0
  7 25  1  0
  7 26  1  0
  8 27  1  0
  9 28  1  0
  9 29  1  0
 11 30  1  0
 12 31  1  0
M  END
$$$$
