
     RDKit          2D

 90 96  0  0  0  0  0  0  0  0999 V2000
    4.5496   -4.0718    0.0000 C   0  0  0  0  0  0  0  0  0  0  0  0
    3.1687   -3.4860    0.0000 C   0  0  0  0  0  0  0  0  0  0  0  0
    4.1740   -2.3726    0.0000 C   0  0  0  0  0  0  0  0  0  0  0  0
    4.4177   -0.8926    0.0000 C   0  0  0  0  0  0  0  0  0  0  0  0
    3.8225    0.4843    0.0000 C   0  0  0  0  0  0  0  0  0  0  0  0
    2.5774    1.3209    0.0000 C   0  0  0  0  0  0  0  0  0  0  0  0
    1.0777    1.3515    0.0000 C   0  0  0  0  0  0  0  0  0  0  0  0
    1.7286    0.0000    0.0000 C   0  0  0  0  0  0  0  0  0  0  0  0
    1.0777   -1.3515    0.0000 C   0  0  0  0  0  0  0  0  0  0  0  0
   -0.3846   -1.6852    0.0000 C   0  0  0  0  0  0  0  0  0  0  0  0
   -1.5574   -0.7500    0.0000 C   0  0  0  0  0  0  0  0  0  0  0  0
   -1.5574    0.7500    0.0000 C   0  0  0  0  0  0  0  0  0  0  0  0
   -3.0198    0.4162    0.0000 C   0  0  0  0  0  0  0  0  0  0  0  0
   -4.4822    0.0824    0.0000 C   0  0  0  0  0  0  0  0  0  0  0  0
   -5.9446   -0.2513    0.0000 C   0  0  0  0  0  0  0  0  0  0  0  0
   -6.2783    1.2110    0.0000 C   0  0  0  0  0  0  0  0  0  0  0  0
   -7.7407    0.8773    0.0000 C   0  0  0  0  0  0  0  0  0  0  0  0
   -8.8403   -0.1430    0.0000 C   0  0  0  0  0  0  0  0  0  0  0  0
   -9.5246   -1.4778    0.0000 C   0  0  0  0  0  0  0  0  0  0  0  0
  -10.2089   -2.8126    0.0000 C   0  0  0  0  0  0  0  0  0  0  0  0
  -10.8933   -4.1474    0.0000 C   0  0  0  0  0  0  0  0  0  0  0  0
  -11.9928   -5.1677    0.0000 C   0  0  0  0  0  0  0  0  0  0  0  0
  -12.3266   -3.7053    0.0000 C   0  0  0  0  0  0  0  0  0  0  0  0
  -13.8248   -3.7801    0.0000 C   0  0  0  0  0  0  0  0  0  0  0  0
  -14.1585   -2.3177    0.0000 C   0  0  0  0  0  0  0  0  0  0  0  0
  -15.5919   -1.8755    0.0000 N   0  0  0  0  0  0  0  0  0  0  0  0
  -15.2581   -3.3379    0.0000 C   0  0  0  0  0  0  0  0  0  0  0  0
   -7.4070   -0.5851    0.0000 C   0  0  0  0  0  0  0  0  0  0  0  0
   -0.3846    1.6852    0.0000 N   0  0  0  0  0  0  0  0  0  0  0  0
    0.2909   -3.4273    0.0000 C   0  0  0  0  0  0  0  0  0  0  0  0
    0.3317   -4.9267    0.0000 C   0  0  0  0  0  0  0  0  0  0  0  0
    1.7212   -3.8791    0.0000 C   0  0  0  0  0  0  0  0  0  0  0  0
    2.5662   -5.1185    0.0000 C   0  0  0  0  0  0  0  0  0  0  0  0
    3.4111   -6.3578    0.0000 O   0  0  0  0  0  0  0  0  0  0  0  0
    2.7603   -7.7093    0.0000 C   0  0  0  0  0  0  0  0  0  0  0  0
    2.1095   -9.0607    0.0000 O   0  0  0  0  0  0  0  0  0  0  0  0
    5.9305   -4.6575    0.0000 H   0  0  0  0  0  0  0  0  0  0  0  0
    4.1226   -5.0784    0.0000 H   0  0  0  0  0  0  0  0  0  0  0  0
    4.9481   -3.3813    0.0000 H   0  0  0  0  0  0  0  0  0  0  0  0
    3.3606   -4.5625    0.0000 H   0  0  0  0  0  0  0  0  0  0  0  0
    5.2517   -2.1876    0.0000 H   0  0  0  0  0  0  0  0  0  0  0  0
    4.9174   -3.1745    0.0000 H   0  0  0  0  0  0  0  0  0  0  0  0
    5.6394   -0.0222    0.0000 H   0  0  0  0  0  0  0  0  0  0  0  0
    5.8139   -1.4408    0.0000 H   0  0  0  0  0  0  0  0  0  0  0  0
    4.3797    1.8770    0.0000 H   0  0  0  0  0  0  0  0  0  0  0  0
    5.2935    0.7779    0.0000 H   0  0  0  0  0  0  0  0  0  0  0  0
    2.2933    2.7937    0.0000 H   0  0  0  0  0  0  0  0  0  0  0  0
    3.6562    2.3631    0.0000 H   0  0  0  0  0  0  0  0  0  0  0  0
    1.8631    2.6295    0.0000 H   0  0  0  0  0  0  0  0  0  0  0  0
    3.0928    0.6237    0.0000 H   0  0  0  0  0  0  0  0  0  0  0  0
    3.0066   -0.7853    0.0000 H   0  0  0  0  0  0  0  0  0  0  0  0
    2.4885   -1.8610    0.0000 H   0  0  0  0  0  0  0  0  0  0  0  0
    1.0777   -2.8515    0.0000 H   0  0  0  0  0  0  0  0  0  0  0  0
   -0.8942   -3.0960    0.0000 H   0  0  0  0  0  0  0  0  0  0  0  0
   -2.2082   -2.1015    0.0000 H   0  0  0  0  0  0  0  0  0  0  0  0
   -3.0496   -0.5970    0.0000 H   0  0  0  0  0  0  0  0  0  0  0  0
   -2.2082    2.1015    0.0000 H   0  0  0  0  0  0  0  0  0  0  0  0
   -3.3536    1.8786    0.0000 H   0  0  0  0  0  0  0  0  0  0  0  0
   -2.8668   -1.0760    0.0000 H   0  0  0  0  0  0  0  0  0  0  0  0
   -4.6352    1.5746    0.0000 H   0  0  0  0  0  0  0  0  0  0  0  0
   -4.1484   -1.3800    0.0000 H   0  0  0  0  0  0  0  0  0  0  0  0
   -5.6108   -1.7137    0.0000 H   0  0  0  0  0  0  0  0  0  0  0  0
   -6.6121    2.6734    0.0000 H   0  0  0  0  0  0  0  0  0  0  0  0
   -4.8675    1.7206    0.0000 H   0  0  0  0  0  0  0  0  0  0  0  0
   -8.4416    2.2034    0.0000 H   0  0  0  0  0  0  0  0  0  0  0  0
  -10.0360    0.7627    0.0000 H   0  0  0  0  0  0  0  0  0  0  0  0
  -10.8594   -0.7935    0.0000 H   0  0  0  0  0  0  0  0  0  0  0  0
   -8.2832   -2.3197    0.0000 H   0  0  0  0  0  0  0  0  0  0  0  0
  -11.4504   -1.9707    0.0000 H   0  0  0  0  0  0  0  0  0  0  0  0
   -8.8741   -3.4969    0.0000 H   0  0  0  0  0  0  0  0  0  0  0  0
   -9.6976   -5.0531    0.0000 H   0  0  0  0  0  0  0  0  0  0  0  0
  -11.1790   -6.4277    0.0000 H   0  0  0  0  0  0  0  0  0  0  0  0
  -13.2937   -5.9145    0.0000 H   0  0  0  0  0  0  0  0  0  0  0  0
  -12.3229   -2.2053    0.0000 H   0  0  0  0  0  0  0  0  0  0  0  0
  -14.1913   -5.2346    0.0000 H   0  0  0  0  0  0  0  0  0  0  0  0
  -13.0590   -1.2974    0.0000 H   0  0  0  0  0  0  0  0  0  0  0  0
  -16.6122   -0.7759    0.0000 H   0  0  0  0  0  0  0  0  0  0  0  0
  -16.3577   -4.3582    0.0000 H   0  0  0  0  0  0  0  0  0  0  0  0
   -7.2799   -2.0797    0.0000 H   0  0  0  0  0  0  0  0  0  0  0  0
   -0.7184    3.1476    0.0000 H   0  0  0  0  0  0  0  0  0  0  0  0
   -1.0378   -4.1234    0.0000 H   0  0  0  0  0  0  0  0  0  0  0  0
    0.3725   -6.4261    0.0000 H   0  0  0  0  0  0  0  0  0  0  0  0
   -1.1678   -4.9675    0.0000 H   0  0  0  0  0  0  0  0  0  0  0  0
    1.7964   -5.2499    0.0000 H   0  0  0  0  0  0  0  0  0  0  0  0
    1.1443   -5.2637    0.0000 H   0  0  0  0  0  0  0  0  0  0  0  0
    1.3268   -5.9635    0.0000 H   0  0  0  0  0  0  0  0  0  0  0  0
    3.9732   -4.5985    0.0000 H   0  0  0  0  0  0  0  0  0  0  0  0
    4.1118   -8.3601    0.0000 H   0  0  0  0  0  0  0  0  0  0  0  0
    1.4089   -7.0585    0.0000 H   0  0  0  0  0  0  0  0  0  0  0  0
    0.6137   -9.1728    0.0000 H   0  0  0  0  0  0  0  0  0  0  0  0
  1  2  1  0
  2  3  1  0
  3  4  1  0
  4  5  1  0
  5  6  1  0
  6  7  1  0
  7  8  1  0
  8  9  1  0
  9 10  1  0
 10 11  1  0
 11 12  1  0
 12 13  1  0
 13 14  1  0
 14 15  1  0
 15 16  1  0
 16 17  1  0
 17 18  1  0
 18 19  1  0
 19 20  1  0
 20 21  1  0
 21 22  1  0
 22 23  1  0
 23 24  1  0
 24 25  1  0
 25 26  1  0
 26 27  1  0
 18 28  1  0
 12 29  1  0
 10 30  1  0
 30 31  1  0
 30 32  1  0
 32 33  1  0
 33 34  1  0
 34 35  1  0
 35 36  1  0
 32  2  1  0
 29  7  1  0
 28 15  1  0
 28 17  1  0
 23 21  1  0
 27 24  1  0
 27 25  1  0
  1 37  1  0
  1 38  1  0
  1 39  1  0
  2 40  1  0
  3 41  1  0
  3 42  1  0
  4 43  1  0
  4 44  1  0
  5 45  1  0
  5 46  1  0
  6 47  1  0
  6 48  1  0
  7 49  1  0
  8 50  1  0
  8 51  1  0
  9 52  1  0
  9 53  1  0
 10 54  1  0
 11 55  1  0
 11 56  1  0
 12 57  1  0
 13 58  1  0
 13 59  1  0
 14 60  1  0
 14 61  1  0
 15 62  1  0
 16 63  1  0
 16 64  1  0
 17 65  1  0
 18 66  1  0
 19 67  1  0
 19 68  1  0
 20 69  1  0
 20 70  1  0
 21 71  1  0
 22 72  1  0
 22 73  1  0
 23 74  1  0
 24 75  1  0
 25 76  1  0
 26 77  1  0
 27 78  1  0
 28 79  1  0
 29 80  1  0
 30 81  1  0
 31 82  1  0
 31 83  1  0
 31 84  1  0
 32 85  1  0
 33 86  1  0
 33 87  1  0
 35 88  1  0
 35 89  1  0
 36 90  1  0
M  END
$$$$
