
     RDKit          2D

116117  0  0  0  0  0  0  0  0999 V2000
   -3.4223    7.3515    0.0000 C   0  0  0  0  0  0  0  0  0  0  0  0
   -3.4223    5.8515    0.0000 C   0  0  0  0  0  0  0  0  0  0  0  0
   -3.4223    4.3515    0.0000 C   0  0  0  0  0  0  0  0  0  0  0  0
   -3.4223    2.8515    0.0000 C   0  0  0  0  0  0  0  0  0  0  0  0
   -3.4223    1.3515    0.0000 C   0  0  0  0  0  0  0  0  0  0  0  0
   -1.9223    2.8515    0.0000 C   0  0  0  0  0  0  0  0  0  0  0  0
   -0.4223    2.8515    0.0000 C   0  0  0  0  0  0  0  0  0  0  0  0
    1.0777    2.8515    0.0000 C   0  0  0  0  0  0  0  0  0  0  0  0
    2.5777    2.8515    0.0000 C   0  0  0  0  0  0  0  0  0  0  0  0
    4.0777    2.8515    0.0000 C   0  0  0  0  0  0  0  0  0  0  0  0
    5.5777    2.8515    0.0000 C   0  0  0  0  0  0  0  0  0  0  0  0
    7.0777    2.8515    0.0000 C   0  0  0  0  0  0  0  0  0  0  0  0
    4.0777    4.3515    0.0000 N   0  0  0  0  0  0  0  0  0  0  0  0
    5.3768    5.1015    0.0000 O   0  0  0  0  0  0  0  0  0  0  0  0
    4.0777    1.3515    0.0000 O   0  0  0  0  0  0  0  0  0  0  0  0
    5.3768    0.6015    0.0000 O   0  0  0  0  0  0  0  0  0  0  0  0
    1.0777    1.3515    0.0000 C   0  0  0  0  0  0  0  0  0  0  0  0
    1.7286    0.0000    0.0000 C   0  0  0  0  0  0  0  0  0  0  0  0
    1.0777   -1.3515    0.0000 C   0  0  0  0  0  0  0  0  0  0  0  0
   -0.3846   -1.6852    0.0000 C   0  0  0  0  0  0  0  0  0  0  0  0
    0.2662   -3.0367    0.0000 C   0  0  0  0  0  0  0  0  0  0  0  0
    0.9170   -4.3881    0.0000 C   0  0  0  0  0  0  0  0  0  0  0  0
    1.5678   -5.7396    0.0000 C   0  0  0  0  0  0  0  0  0  0  0  0
    2.2187   -7.0910    0.0000 C   0  0  0  0  0  0  0  0  0  0  0  0
    2.8695   -8.4425    0.0000 C   0  0  0  0  0  0  0  0  0  0  0  0
    3.5203   -9.7940    0.0000 C   0  0  0  0  0  0  0  0  0  0  0  0
    4.2209   -7.7917    0.0000 C   0  0  0  0  0  0  0  0  0  0  0  0
    5.5724   -7.1408    0.0000 C   0  0  0  0  0  0  0  0  0  0  0  0
    6.9238   -6.4900    0.0000 C   0  0  0  0  0  0  0  0  0  0  0  0
    8.2753   -5.8392    0.0000 C   0  0  0  0  0  0  0  0  0  0  0  0
    6.2730   -5.1386    0.0000 C   0  0  0  0  0  0  0  0  0  0  0  0
   -1.5574   -0.7500    0.0000 C   0  0  0  0  0  0  0  0  0  0  0  0
   -1.5574    0.7500    0.0000 C   0  0  0  0  0  0  0  0  0  0  0  0
   -0.3846    1.6852    0.0000 C   0  0  0  0  0  0  0  0  0  0  0  0
   -1.9223    1.3515    0.0000 C   0  0  0  0  0  0  0  0  0  0  0  0
   -2.6957    1.1586    0.0000 Br  0  0  0  0  0  0  0  0  0  0  0  0
   -1.9223   -0.1485    0.0000 C   0  0  0  0  0  0  0  0  0  0  0  0
   -1.9223   -1.6485    0.0000 C   0  0  0  0  0  0  0  0  0  0  0  0
   -1.6104   -3.1158    0.0000 C   0  0  0  0  0  0  0  0  0  0  0  0
   -2.9094   -3.8658    0.0000 C   0  0  0  0  0  0  0  0  0  0  0  0
   -2.0277   -5.0793    0.0000 O   0  0  0  0  0  0  0  0  0  0  0  0
   -4.0241   -2.8621    0.0000 C   0  0  0  0  0  0  0  0  0  0  0  0
   -3.4140   -1.4918    0.0000 C   0  0  0  0  0  0  0  0  0  0  0  0
   -4.8406   -1.0282    0.0000 C   0  0  0  0  0  0  0  0  0  0  0  0
   -3.4223    8.8515    0.0000 H   0  0  0  0  0  0  0  0  0  0  0  0
   -4.9223    7.3515    0.0000 H   0  0  0  0  0  0  0  0  0  0  0  0
   -1.9223    7.3515    0.0000 H   0  0  0  0  0  0  0  0  0  0  0  0
   -1.9223    5.8515    0.0000 H   0  0  0  0  0  0  0  0  0  0  0  0
   -4.9223    5.8515    0.0000 H   0  0  0  0  0  0  0  0  0  0  0  0
   -1.9334    4.5343    0.0000 H   0  0  0  0  0  0  0  0  0  0  0  0
   -4.9223    4.3515    0.0000 H   0  0  0  0  0  0  0  0  0  0  0  0
   -4.9223    2.8515    0.0000 H   0  0  0  0  0  0  0  0  0  0  0  0
   -3.9599   -0.0489    0.0000 H   0  0  0  0  0  0  0  0  0  0  0  0
   -4.9223    1.3515    0.0000 H   0  0  0  0  0  0  0  0  0  0  0  0
   -2.0219    0.8138    0.0000 H   0  0  0  0  0  0  0  0  0  0  0  0
   -1.7394    4.3403    0.0000 H   0  0  0  0  0  0  0  0  0  0  0  0
   -0.6051    1.3626    0.0000 H   0  0  0  0  0  0  0  0  0  0  0  0
   -0.4223    4.3515    0.0000 H   0  0  0  0  0  0  0  0  0  0  0  0
    1.0777    4.3515    0.0000 H   0  0  0  0  0  0  0  0  0  0  0  0
    2.3949    4.3403    0.0000 H   0  0  0  0  0  0  0  0  0  0  0  0
    2.7606    1.3626    0.0000 H   0  0  0  0  0  0  0  0  0  0  0  0
    5.9407    1.3960    0.0000 H   0  0  0  0  0  0  0  0  0  0  0  0
    5.9407    4.3069    0.0000 H   0  0  0  0  0  0  0  0  0  0  0  0
    8.5777    2.8515    0.0000 H   0  0  0  0  0  0  0  0  0  0  0  0
    7.0777    1.3515    0.0000 H   0  0  0  0  0  0  0  0  0  0  0  0
    7.0777    4.3515    0.0000 H   0  0  0  0  0  0  0  0  0  0  0  0
    2.8798    5.2542    0.0000 H   0  0  0  0  0  0  0  0  0  0  0  0
    5.3768    6.6015    0.0000 H   0  0  0  0  0  0  0  0  0  0  0  0
    5.3768   -0.8985    0.0000 H   0  0  0  0  0  0  0  0  0  0  0  0
    2.5699    1.5045    0.0000 H   0  0  0  0  0  0  0  0  0  0  0  0
    3.2286   -0.0000    0.0000 H   0  0  0  0  0  0  0  0  0  0  0  0
    2.1490   -2.4015    0.0000 H   0  0  0  0  0  0  0  0  0  0  0  0
   -1.1442   -2.9787    0.0000 H   0  0  0  0  0  0  0  0  0  0  0  0
   -0.7622   -4.1287    0.0000 H   0  0  0  0  0  0  0  0  0  0  0  0
    1.6869   -2.5555    0.0000 H   0  0  0  0  0  0  0  0  0  0  0  0
   -0.3450   -5.1989    0.0000 H   0  0  0  0  0  0  0  0  0  0  0  0
    2.2685   -3.7373    0.0000 H   0  0  0  0  0  0  0  0  0  0  0  0
    2.9193   -5.0888    0.0000 H   0  0  0  0  0  0  0  0  0  0  0  0
    0.2164   -6.3904    0.0000 H   0  0  0  0  0  0  0  0  0  0  0  0
    0.8672   -7.7419    0.0000 H   0  0  0  0  0  0  0  0  0  0  0  0
    3.4807   -6.2803    0.0000 H   0  0  0  0  0  0  0  0  0  0  0  0
    1.5180   -9.0933    0.0000 H   0  0  0  0  0  0  0  0  0  0  0  0
    4.1711  -11.1454    0.0000 H   0  0  0  0  0  0  0  0  0  0  0  0
    2.1689  -10.4448    0.0000 H   0  0  0  0  0  0  0  0  0  0  0  0
    4.9410   -9.3127    0.0000 H   0  0  0  0  0  0  0  0  0  0  0  0
    5.0316   -9.0537    0.0000 H   0  0  0  0  0  0  0  0  0  0  0  0
    3.7397   -6.3710    0.0000 H   0  0  0  0  0  0  0  0  0  0  0  0
    6.2232   -8.4923    0.0000 H   0  0  0  0  0  0  0  0  0  0  0  0
    4.7617   -5.8788    0.0000 H   0  0  0  0  0  0  0  0  0  0  0  0
    7.5747   -7.8415    0.0000 H   0  0  0  0  0  0  0  0  0  0  0  0
    9.6268   -5.1884    0.0000 H   0  0  0  0  0  0  0  0  0  0  0  0
    8.9261   -7.1907    0.0000 H   0  0  0  0  0  0  0  0  0  0  0  0
    7.7941   -4.4185    0.0000 H   0  0  0  0  0  0  0  0  0  0  0  0
    5.6222   -3.7871    0.0000 H   0  0  0  0  0  0  0  0  0  0  0  0
    7.5351   -4.3279    0.0000 H   0  0  0  0  0  0  0  0  0  0  0  0
    4.8523   -5.6198    0.0000 H   0  0  0  0  0  0  0  0  0  0  0  0
   -2.0386   -2.1707    0.0000 H   0  0  0  0  0  0  0  0  0  0  0  0
   -3.0423   -0.9626    0.0000 H   0  0  0  0  0  0  0  0  0  0  0  0
   -3.0496    0.5970    0.0000 H   0  0  0  0  0  0  0  0  0  0  0  0
   -2.2082    2.1015    0.0000 H   0  0  0  0  0  0  0  0  0  0  0  0
   -1.6626    2.4705    0.0000 H   0  0  0  0  0  0  0  0  0  0  0  0
   -0.0802    3.1540    0.0000 H   0  0  0  0  0  0  0  0  0  0  0  0
   -0.5219    0.8138    0.0000 H   0  0  0  0  0  0  0  0  0  0  0  0
   -3.4111   -0.3314    0.0000 H   0  0  0  0  0  0  0  0  0  0  0  0
   -0.4223   -0.1485    0.0000 H   0  0  0  0  0  0  0  0  0  0  0  0
   -0.5127   -1.1354    0.0000 H   0  0  0  0  0  0  0  0  0  0  0  0
   -0.1140   -3.0112    0.0000 H   0  0  0  0  0  0  0  0  0  0  0  0
   -1.3500   -4.5930    0.0000 H   0  0  0  0  0  0  0  0  0  0  0  0
   -4.0241   -4.8695    0.0000 H   0  0  0  0  0  0  0  0  0  0  0  0
   -2.6378   -6.4496    0.0000 H   0  0  0  0  0  0  0  0  0  0  0  0
   -4.9058   -4.0756    0.0000 H   0  0  0  0  0  0  0  0  0  0  0  0
   -5.4049   -2.2760    0.0000 H   0  0  0  0  0  0  0  0  0  0  0  0
   -3.6744   -2.9690    0.0000 H   0  0  0  0  0  0  0  0  0  0  0  0
   -6.2672   -0.5647    0.0000 H   0  0  0  0  0  0  0  0  0  0  0  0
   -5.4746   -2.3877    0.0000 H   0  0  0  0  0  0  0  0  0  0  0  0
   -4.3771    0.3984    0.0000 H   0  0  0  0  0  0  0  0  0  0  0  0
  1  2  1  0
  2  3  1  0
  3  4  1  0
  4  5  1  0
  4  6  1  0
  6  7  1  0
  7  8  1  0
  8  9  1  0
  9 10  1  0
 10 11  1  0
 11 12  1  0
 10 13  1  0
 13 14  1  0
 10 15  1  0
 15 16  1  0
  8 17  1  0
 17 18  1  0
 18 19  2  0
 19 20  1  0
 20 21  1  0
 21 22  1  0
 22 23  1  0
 23 24  1  0
 24 25  1  0
 25 26  1  0
 25 27  1  0
 27 28  1  0
 28 29  1  0
 29 30  1  0
 29 31  1  0
 20 32  1  0
 32 33  1  0
 33 34  1  0
  6 35  1  0
 35 36  1  0
 35 37  1  0
 37 38  1  0
 38 39  1  0
 39 40  1  0
 40 41  1  0
 40 42  1  0
 42 43  1  0
 43 44  1  0
 34 17  1  0
 43 38  1  0
  1 45  1  0
  1 46  1  0
  1 47  1  0
  2 48  1  0
  2 49  1  0
  3 50  1  0
  3 51  1  0
  4 52  1  0
  5 53  1  0
  5 54  1  0
  5 55  1  0
  6 56  1  0
  7 57  1  0
  7 58  1  0
  8 59  1  0
  9 60  1  0
  9 61  1  0
 11 62  1  0
 11 63  1  0
 12 64  1  0
 12 65  1  0
 12 66  1  0
 13 67  1  0
 14 68  1  0
 16 69  1  0
 17 70  1  0
 18 71  1  0
 19 72  1  0
 20 73  1  0
 21 74  1  0
 21 75  1  0
 22 76  1  0
 22 77  1  0
 23 78  1  0
 23 79  1  0
 24 80  1  0
 24 81  1  0
 25 82  1  0
 26 83  1  0
 26 84  1  0
 26 85  1  0
 27 86  1  0
 27 87  1  0
 28 88  1  0
 28 89  1  0
 29 90  1  0
 30 91  1  0
 30 92  1  0
 30 93  1  0
 31 94  1  0
 31 95  1  0
 31 96  1  0
 32 97  1  0
 32 98  1  0
 33 99  1  0
 33100  1  0
 34101  1  0
 34102  1  0
 35103  1  0
 37104  1  0
 37105  1  0
 38106  1  0
 39107  1  0
 39108  1  0
 40109  1  0
 41110  1  0
 42111  1  0
 42112  1  0
 43113  1  0
 44114  1  0
 44115  1  0
 44116  1  0
M  END
$$$$
