
     RDKit          2D

 37 39  0  0  0  0  0  0  0  0999 V2000
   -7.0557   -5.7135    0.0000 C   0  0  0  0  0  0  0  0  0  0  0  0
   -5.7567   -4.9635    0.0000 C   0  0  0  0  0  0  0  0  0  0  0  0
   -4.4577   -4.2135    0.0000 C   0  0  0  0  0  0  0  0  0  0  0  0
   -3.1586   -3.4635    0.0000 O   0  0  0  0  0  0  0  0  0  0  0  0
   -3.1586   -1.9635    0.0000 Se  0  0  0  0  0  2  0  0  0  0  0  0
   -1.8596   -1.2135    0.0000 C   0  0  0  0  0  0  0  0  0  0  0  0
   -2.7413    0.0000    0.0000 C   0  0  0  0  0  0  0  0  0  0  0  0
   -1.8596    1.2135    0.0000 C   0  0  0  0  0  0  0  0  0  0  0  0
   -0.8973    2.4271    0.0000 C   0  0  0  0  0  0  0  0  0  0  0  0
    0.5945    2.5838    0.0000 C   0  0  0  0  0  0  0  0  0  0  0  0
    1.4761    1.3703    0.0000 C   0  0  0  0  0  0  0  0  0  0  0  0
    0.8660    0.0000    0.0000 C   0  0  0  0  0  0  0  0  0  0  0  0
   -0.4330    0.7500    0.0000 C   0  0  0  0  0  0  0  0  0  0  0  0
   -0.4330   -0.7500    0.0000 C   0  0  0  0  0  0  0  0  0  0  0  0
    0.1771   -2.1203    0.0000 C   0  0  0  0  0  0  0  0  0  0  0  0
   -8.3548   -6.4635    0.0000 H   0  0  0  0  0  0  0  0  0  0  0  0
   -6.3057   -7.0126    0.0000 H   0  0  0  0  0  0  0  0  0  0  0  0
   -7.8057   -4.4145    0.0000 H   0  0  0  0  0  0  0  0  0  0  0  0
   -5.0067   -6.2626    0.0000 H   0  0  0  0  0  0  0  0  0  0  0  0
   -6.5067   -3.6645    0.0000 H   0  0  0  0  0  0  0  0  0  0  0  0
   -5.2077   -2.9145    0.0000 H   0  0  0  0  0  0  0  0  0  0  0  0
   -3.7077   -5.5126    0.0000 H   0  0  0  0  0  0  0  0  0  0  0  0
   -1.4211   -2.6480    0.0000 H   0  0  0  0  0  0  0  0  0  0  0  0
   -3.8560    1.0037    0.0000 H   0  0  0  0  0  0  0  0  0  0  0  0
   -3.8560   -1.0037    0.0000 H   0  0  0  0  0  0  0  0  0  0  0  0
   -2.1965    1.9360    0.0000 H   0  0  0  0  0  0  0  0  0  0  0  0
   -0.7927    3.9234    0.0000 H   0  0  0  0  0  0  0  0  0  0  0  0
   -1.6415    2.7127    0.0000 H   0  0  0  0  0  0  0  0  0  0  0  0
    1.9426    3.2414    0.0000 H   0  0  0  0  0  0  0  0  0  0  0  0
    0.1810    4.0257    0.0000 H   0  0  0  0  0  0  0  0  0  0  0  0
    2.8127    0.6894    0.0000 H   0  0  0  0  0  0  0  0  0  0  0  0
    2.5181    2.4493    0.0000 H   0  0  0  0  0  0  0  0  0  0  0  0
    2.3548   -0.1828    0.0000 H   0  0  0  0  0  0  0  0  0  0  0  0
    0.4905    1.9320    0.0000 H   0  0  0  0  0  0  0  0  0  0  0  0
    0.7872   -3.4906    0.0000 H   0  0  0  0  0  0  0  0  0  0  0  0
   -1.1086   -2.8929    0.0000 H   0  0  0  0  0  0  0  0  0  0  0  0
    1.5474   -1.5102    0.0000 H   0  0  0  0  0  0  0  0  0  0  0  0
  1  2  1  0
  2  3  1  0
  3  4  1  0
  4  5  1  0
  5  6  1  0
  6  7  1  0
  7  8  1  0
  8  9  1  0
  9 10  1  0
 10 11  1  0
 11 12  1  0
 12 13  1  0
 13 14  1  0
 14 15  1  0
 14  6  1  0
 13  8  1  0
 14 12  1  0
  1 16  1  0
  1 17  1  0
  1 18  1  0
  2 19  1  0
  2 20  1  0
  3 21  1  0
  3 22  1  0
  6 23  1  0
  7 24  1  0
  7 25  1  0
  8 26  1  0
  9 27  1  0
  9 28  1  0
 10 29  1  0
 10 30  1  0
 11 31  1  0
 11 32  1  0
 12 33  1  0
 13 34  1  0
 15 35  1  0
 15 36  1  0
 15 37  1  0
M  END
$$$$
