
     RDKit          2D

 46 46  0  0  0  0  0  0  0  0999 V2000
    6.1838    4.6309    0.0000 C   0  0  0  0  0  0  0  0  0  0  0  0
    5.7956    3.1820    0.0000 C   0  0  0  0  0  0  0  0  0  0  0  0
    5.4073    1.7331    0.0000 C   0  0  0  0  0  0  0  0  0  0  0  0
    5.1986    0.2477    0.0000 I   0  0  0  0  0  0  0  0  0  0  0  0
    4.3467    3.5702    0.0000 C   0  0  0  0  0  0  0  0  0  0  0  0
    2.8978    3.9584    0.0000 C   0  0  0  0  0  0  0  0  0  0  0  0
    3.9584    2.1213    0.0000 C   0  0  0  0  0  0  0  0  0  0  0  0
    3.5702    0.6724    0.0000 C   0  0  0  0  0  0  0  0  0  0  0  0
    2.1213    1.0607    0.0000 N   0  0  0  0  0  0  0  0  0  0  0  0
    1.0607    0.0000    0.0000 C   0  0  0  0  0  0  0  0  0  0  0  0
   -0.0000   -1.0607    0.0000 N   0  0  0  0  0  2  0  0  0  0  0  0
   -1.0607    0.0000    0.0000 C   0  0  0  0  0  0  0  0  0  0  0  0
   -2.1213   -1.0607    0.0000 N   0  0  0  0  0  0  0  0  0  0  0  0
   -3.5702   -0.6724    0.0000 C   0  0  0  0  0  0  0  0  0  0  0  0
   -1.7331   -2.5095    0.0000 C   0  0  0  0  0  0  0  0  0  0  0  0
   -1.3449   -3.9584    0.0000 C   0  0  0  0  0  0  0  0  0  0  0  0
   -0.9566   -5.4073    0.0000 O   0  0  0  0  0  0  0  0  0  0  0  0
    0.0000    1.0607    0.0000 N   0  0  0  0  0  2  0  0  0  0  0  0
    3.1820   -0.7765    0.0000 C   0  0  0  0  0  0  0  0  0  0  0  0
    4.2426   -1.8371    0.0000 O   0  0  0  0  0  0  0  0  0  0  0  0
    1.7331   -1.1647    0.0000 O   0  0  0  0  0  0  0  0  0  0  0  0
    6.5720    6.0798    0.0000 H   0  0  0  0  0  0  0  0  0  0  0  0
    7.6327    4.2426    0.0000 H   0  0  0  0  0  0  0  0  0  0  0  0
    4.7930    5.1928    0.0000 H   0  0  0  0  0  0  0  0  0  0  0  0
    7.2444    2.7938    0.0000 H   0  0  0  0  0  0  0  0  0  0  0  0
    6.8562    1.3449    0.0000 H   0  0  0  0  0  0  0  0  0  0  0  0
    4.6103    1.7470    0.0000 H   0  0  0  0  0  0  0  0  0  0  0  0
    4.5554    5.0556    0.0000 H   0  0  0  0  0  0  0  0  0  0  0  0
    1.4489    4.3467    0.0000 H   0  0  0  0  0  0  0  0  0  0  0  0
    3.2860    5.4073    0.0000 H   0  0  0  0  0  0  0  0  0  0  0  0
    2.1705    2.6465    0.0000 H   0  0  0  0  0  0  0  0  0  0  0  0
    5.2703    1.3940    0.0000 H   0  0  0  0  0  0  0  0  0  0  0  0
    2.5095    2.5095    0.0000 H   0  0  0  0  0  0  0  0  0  0  0  0
    4.9610    0.1105    0.0000 H   0  0  0  0  0  0  0  0  0  0  0  0
    1.3940    2.3726    0.0000 H   0  0  0  0  0  0  0  0  0  0  0  0
    1.8331   -1.2858    0.0000 H   0  0  0  0  0  0  0  0  0  0  0  0
   -2.1213    1.0607    0.0000 H   0  0  0  0  0  0  0  0  0  0  0  0
   -5.0191   -0.2842    0.0000 H   0  0  0  0  0  0  0  0  0  0  0  0
   -3.9584   -2.1213    0.0000 H   0  0  0  0  0  0  0  0  0  0  0  0
   -3.1820    0.7765    0.0000 H   0  0  0  0  0  0  0  0  0  0  0  0
   -0.2842   -2.1213    0.0000 H   0  0  0  0  0  0  0  0  0  0  0  0
   -3.1820   -2.8978    0.0000 H   0  0  0  0  0  0  0  0  0  0  0  0
    0.1040   -3.5702    0.0000 H   0  0  0  0  0  0  0  0  0  0  0  0
   -2.7938   -4.3467    0.0000 H   0  0  0  0  0  0  0  0  0  0  0  0
   -2.0173   -6.4680    0.0000 H   0  0  0  0  0  0  0  0  0  0  0  0
    1.3449   -2.6136    0.0000 H   0  0  0  0  0  0  0  0  0  0  0  0
  1  2  1  0
  2  3  1  0
  3  4  1  0
  2  5  1  0
  5  6  1  0
  5  7  1  0
  7  8  1  0
  8  9  1  0
  9 10  1  0
 10 11  1  0
 11 12  1  0
 12 13  1  0
 13 14  1  0
 13 15  1  0
 15 16  1  0
 16 17  1  0
 12 18  1  0
  8 19  1  0
 19 20  2  0
 19 21  1  0
 18 10  1  0
  1 22  1  0
  1 23  1  0
  1 24  1  0
  2 25  1  0
  3 26  1  0
  3 27  1  0
  5 28  1  0
  6 29  1  0
  6 30  1  0
  6 31  1  0
  7 32  1  0
  7 33  1  0
  8 34  1  0
  9 35  1  0
 10 36  1  0
 12 37  1  0
 14 38  1  0
 14 39  1  0
 14 40  1  0
 15 41  1  0
 15 42  1  0
 16 43  1  0
 16 44  1  0
 17 45  1  0
 21 46  1  0
M  RAD  2  11   2  18   2
M  END
$$$$
