
     RDKit          2D

 48 53  0  0  0  0  0  0  0  0999 V2000
   -0.6072    6.0380    0.0000 C   0  0  0  0  0  0  0  0  0  0  0  0
   -0.4330    4.5481    0.0000 C   0  0  0  0  0  0  0  0  0  0  0  0
   -1.9102    4.8086    0.0000 C   0  0  0  0  0  0  0  0  0  0  0  0
   -3.2093    4.0586    0.0000 C   0  0  0  0  0  0  0  0  0  0  0  0
   -3.7223    2.6491    0.0000 C   0  0  0  0  0  0  0  0  0  0  0  0
   -3.2093    1.2395    0.0000 C   0  0  0  0  0  0  0  0  0  0  0  0
   -1.9102    0.4895    0.0000 C   0  0  0  0  0  0  0  0  0  0  0  0
   -1.2370   -0.8509    0.0000 C   0  0  0  0  0  0  0  0  0  0  0  0
   -1.0629   -2.3408    0.0000 C   0  0  0  0  0  0  0  0  0  0  0  0
   -2.4402   -1.7467    0.0000 C   0  0  0  0  0  0  0  0  0  0  0  0
   -0.4330    0.7500    0.0000 C   0  0  0  0  0  0  0  0  0  0  0  0
    0.8660    0.0000    0.0000 C   0  0  0  0  0  0  0  0  0  0  0  0
   -0.4330   -0.7500    0.0000 C   0  0  0  0  0  0  0  0  0  0  0  0
    0.5312    1.8991    0.0000 C   0  0  0  0  0  0  0  0  0  0  0  0
    1.8302    2.6491    0.0000 C   0  0  0  0  0  0  0  0  0  0  0  0
    0.5312    3.3991    0.0000 C   0  0  0  0  0  0  0  0  0  0  0  0
   -3.7223    5.4681    0.0000 C   0  0  0  0  0  0  0  0  0  0  0  0
   -5.1995    5.7286    0.0000 C   0  0  0  0  0  0  0  0  0  0  0  0
   -4.6865    4.3191    0.0000 C   0  0  0  0  0  0  0  0  0  0  0  0
   -5.6507    3.1700    0.0000 O   0  0  0  0  0  0  0  0  0  0  0  0
   -0.7813    7.5278    0.0000 H   0  0  0  0  0  0  0  0  0  0  0  0
   -1.3978    6.1398    0.0000 H   0  0  0  0  0  0  0  0  0  0  0  0
    0.7337    6.1947    0.0000 H   0  0  0  0  0  0  0  0  0  0  0  0
    0.7322    5.2300    0.0000 H   0  0  0  0  0  0  0  0  0  0  0  0
   -3.0013    5.8380    0.0000 H   0  0  0  0  0  0  0  0  0  0  0  0
   -1.8316    5.6019    0.0000 H   0  0  0  0  0  0  0  0  0  0  0  0
   -5.0257    1.9067    0.0000 H   0  0  0  0  0  0  0  0  0  0  0  0
   -5.1065    3.2270    0.0000 H   0  0  0  0  0  0  0  0  0  0  0  0
   -3.8981   -0.0930    0.0000 H   0  0  0  0  0  0  0  0  0  0  0  0
   -4.6849    0.9704    0.0000 H   0  0  0  0  0  0  0  0  0  0  0  0
   -3.0013   -0.5398    0.0000 H   0  0  0  0  0  0  0  0  0  0  0  0
    0.2337   -1.1459    0.0000 H   0  0  0  0  0  0  0  0  0  0  0  0
    0.4128   -2.6099    0.0000 H   0  0  0  0  0  0  0  0  0  0  0  0
   -1.4088   -3.8003    0.0000 H   0  0  0  0  0  0  0  0  0  0  0  0
   -3.2645   -2.9999    0.0000 H   0  0  0  0  0  0  0  0  0  0  0  0
   -3.7479   -1.0119    0.0000 H   0  0  0  0  0  0  0  0  0  0  0  0
    1.9631    1.0230    0.0000 H   0  0  0  0  0  0  0  0  0  0  0  0
    1.8302   -1.1491    0.0000 H   0  0  0  0  0  0  0  0  0  0  0  0
    0.2480   -2.0865    0.0000 H   0  0  0  0  0  0  0  0  0  0  0  0
   -1.8033   -1.3602    0.0000 H   0  0  0  0  0  0  0  0  0  0  0  0
    1.6282    0.8761    0.0000 H   0  0  0  0  0  0  0  0  0  0  0  0
    2.7944    1.5000    0.0000 H   0  0  0  0  0  0  0  0  0  0  0  0
    2.7944    3.7981    0.0000 H   0  0  0  0  0  0  0  0  0  0  0  0
    1.6282    4.4220    0.0000 H   0  0  0  0  0  0  0  0  0  0  0  0
   -2.9054    6.7262    0.0000 H   0  0  0  0  0  0  0  0  0  0  0  0
   -5.1995    7.2286    0.0000 H   0  0  0  0  0  0  0  0  0  0  0  0
   -6.6767    5.4681    0.0000 H   0  0  0  0  0  0  0  0  0  0  0  0
   -7.1279    3.4305    0.0000 H   0  0  0  0  0  0  0  0  0  0  0  0
  1  2  1  0
  2  3  1  0
  4  3  1  6
  4  5  1  0
  5  6  1  0
  6  7  1  0
  7  8  1  0
  8  9  1  0
  9 10  1  0
  7 11  1  0
 11 12  1  0
 12 13  1  0
 11 14  1  0
 14 15  1  0
 15 16  1  0
  4 17  1  0
 17 18  1  0
 18 19  1  0
 19 20  1  6
 16  2  1  0
 19 17  1  0
 19  4  1  0
 10  8  1  0
 13 11  1  0
 16 14  1  0
  1 21  1  0
  1 22  1  0
  1 23  1  0
  2 24  1  6
  3 25  1  0
  3 26  1  0
  5 27  1  0
  5 28  1  0
  6 29  1  0
  6 30  1  0
  7 31  1  6
  8 32  1  0
  9 33  1  0
  9 34  1  0
 10 35  1  0
 10 36  1  0
 12 37  1  0
 12 38  1  0
 13 39  1  0
 13 40  1  0
 14 41  1  6
 15 42  1  0
 15 43  1  0
 16 44  1  6
 17 45  1  6
 18 46  1  0
 18 47  1  0
 20 48  1  0
M  END
$$$$
