
     RDKit          2D

 81 90  0  0  0  0  0  0  0  0999 V2000
    3.7805   -1.6317    0.0000 N   0  0  0  0  0  0  0  0  0  0  0  0
    2.2805   -1.6317    0.0000 C   0  0  0  0  0  0  0  0  0  0  0  0
    0.7805   -1.6317    0.0000 C   0  0  0  0  0  0  0  0  0  0  0  0
    1.2440   -3.0583    0.0000 C   0  0  0  0  0  0  0  0  0  0  0  0
    0.7805   -4.4848    0.0000 C   0  0  0  0  0  0  0  0  0  0  0  0
    1.9940   -5.3665    0.0000 C   0  0  0  0  0  0  0  0  0  0  0  0
    3.3644   -4.7564    0.0000 O   0  0  0  0  0  0  0  0  0  0  0  0
   -0.4330   -5.3665    0.0000 C   0  0  0  0  0  0  0  0  0  0  0  0
   -1.9330   -5.3665    0.0000 C   0  0  0  0  0  0  0  0  0  0  0  0
   -3.1465   -4.4848    0.0000 C   0  0  0  0  0  0  0  0  0  0  0  0
   -3.6101   -3.0583    0.0000 C   0  0  0  0  0  0  0  0  0  0  0  0
   -3.1465   -1.6317    0.0000 C   0  0  0  0  0  0  0  0  0  0  0  0
   -1.9330   -0.7500    0.0000 C   0  0  0  0  0  0  0  0  0  0  0  0
   -1.9330    0.7500    0.0000 C   0  0  0  0  0  0  0  0  0  0  0  0
   -1.9330    2.2500    0.0000 C   0  0  0  0  0  0  0  0  0  0  0  0
   -1.9330    3.7500    0.0000 C   0  0  0  0  0  0  0  0  0  0  0  0
   -3.4102    4.0105    0.0000 C   0  0  0  0  0  0  0  0  0  0  0  0
   -2.4460    5.1595    0.0000 C   0  0  0  0  0  0  0  0  0  0  0  0
   -3.9233    5.4200    0.0000 C   0  0  0  0  0  0  0  0  0  0  0  0
   -5.4175    5.2893    0.0000 C   0  0  0  0  0  0  0  0  0  0  0  0
   -5.5483    6.7836    0.0000 C   0  0  0  0  0  0  0  0  0  0  0  0
   -7.0426    6.6528    0.0000 C   0  0  0  0  0  0  0  0  0  0  0  0
   -8.4915    7.0411    0.0000 C   0  0  0  0  0  0  0  0  0  0  0  0
   -7.4308    8.1017    0.0000 C   0  0  0  0  0  0  0  0  0  0  0  0
   -6.0713    8.7357    0.0000 C   0  0  0  0  0  0  0  0  0  0  0  0
   -4.7119    9.3696    0.0000 C   0  0  0  0  0  0  0  0  0  0  0  0
   -5.1001   10.8185    0.0000 C   0  0  0  0  0  0  0  0  0  0  0  0
   -4.0394   11.8791    0.0000 C   0  0  0  0  0  0  0  0  0  0  0  0
   -2.5906   12.2674    0.0000 C   0  0  0  0  0  0  0  0  0  0  0  0
   -2.2023   10.8185    0.0000 C   0  0  0  0  0  0  0  0  0  0  0  0
   -3.6512   10.4302    0.0000 C   0  0  0  0  0  0  0  0  0  0  0  0
   -4.0540    6.9143    0.0000 C   0  0  0  0  0  0  0  0  0  0  0  0
   -4.1847    8.4086    0.0000 O   0  0  0  0  0  0  0  0  0  0  0  0
   -0.4330    0.7500    0.0000 C   0  0  0  0  0  0  0  0  0  0  0  0
    0.8660    0.0000    0.0000 C   0  0  0  0  0  0  0  0  0  0  0  0
   -0.4330   -0.7500    0.0000 C   0  0  0  0  0  0  0  0  0  0  0  0
    4.5305   -2.9307    0.0000 H   0  0  0  0  0  0  0  0  0  0  0  0
    4.5305   -0.3326    0.0000 H   0  0  0  0  0  0  0  0  0  0  0  0
    2.2805   -0.1317    0.0000 H   0  0  0  0  0  0  0  0  0  0  0  0
    2.3777   -2.4229    0.0000 H   0  0  0  0  0  0  0  0  0  0  0  0
    1.4244   -0.6013    0.0000 H   0  0  0  0  0  0  0  0  0  0  0  0
    1.9832   -2.7597    0.0000 H   0  0  0  0  0  0  0  0  0  0  0  0
    2.3410   -4.0813    0.0000 H   0  0  0  0  0  0  0  0  0  0  0  0
    1.8372   -6.8583    0.0000 H   0  0  0  0  0  0  0  0  0  0  0  0
    0.0305   -6.7931    0.0000 H   0  0  0  0  0  0  0  0  0  0  0  0
   -1.4695   -6.7931    0.0000 H   0  0  0  0  0  0  0  0  0  0  0  0
   -3.0300   -6.3896    0.0000 H   0  0  0  0  0  0  0  0  0  0  0  0
   -3.7805   -5.8443    0.0000 H   0  0  0  0  0  0  0  0  0  0  0  0
   -4.6354   -4.6677    0.0000 H   0  0  0  0  0  0  0  0  0  0  0  0
   -4.9220   -3.7854    0.0000 H   0  0  0  0  0  0  0  0  0  0  0  0
   -4.9220   -2.3311    0.0000 H   0  0  0  0  0  0  0  0  0  0  0  0
   -4.6354   -1.4488    0.0000 H   0  0  0  0  0  0  0  0  0  0  0  0
   -3.6101   -0.2051    0.0000 H   0  0  0  0  0  0  0  0  0  0  0  0
   -1.6984   -2.2315    0.0000 H   0  0  0  0  0  0  0  0  0  0  0  0
   -3.4330    0.7500    0.0000 H   0  0  0  0  0  0  0  0  0  0  0  0
   -3.4330    2.2500    0.0000 H   0  0  0  0  0  0  0  0  0  0  0  0
   -0.4442    2.4328    0.0000 H   0  0  0  0  0  0  0  0  0  0  0  0
   -0.4558    4.0105    0.0000 H   0  0  0  0  0  0  0  0  0  0  0  0
   -4.3744    2.8614    0.0000 H   0  0  0  0  0  0  0  0  0  0  0  0
   -1.4819    6.3086    0.0000 H   0  0  0  0  0  0  0  0  0  0  0  0
   -6.8848    4.9774    0.0000 H   0  0  0  0  0  0  0  0  0  0  0  0
   -5.2868    3.7950    0.0000 H   0  0  0  0  0  0  0  0  0  0  0  0
   -5.3135    8.2651    0.0000 H   0  0  0  0  0  0  0  0  0  0  0  0
   -7.3545    5.1856    0.0000 H   0  0  0  0  0  0  0  0  0  0  0  0
   -9.1254    5.6816    0.0000 H   0  0  0  0  0  0  0  0  0  0  0  0
   -9.7202    7.9014    0.0000 H   0  0  0  0  0  0  0  0  0  0  0  0
   -8.2912    9.3305    0.0000 H   0  0  0  0  0  0  0  0  0  0  0  0
   -5.1273    7.5700    0.0000 H   0  0  0  0  0  0  0  0  0  0  0  0
   -6.7053   10.0951    0.0000 H   0  0  0  0  0  0  0  0  0  0  0  0
   -3.5798    8.3856    0.0000 H   0  0  0  0  0  0  0  0  0  0  0  0
   -6.5490   11.2067    0.0000 H   0  0  0  0  0  0  0  0  0  0  0  0
   -4.7894   13.1782    0.0000 H   0  0  0  0  0  0  0  0  0  0  0  0
   -1.1417   12.6556    0.0000 H   0  0  0  0  0  0  0  0  0  0  0  0
   -2.9788   13.7162    0.0000 H   0  0  0  0  0  0  0  0  0  0  0  0
   -1.8141    9.3696    0.0000 H   0  0  0  0  0  0  0  0  0  0  0  0
   -0.7534   11.2067    0.0000 H   0  0  0  0  0  0  0  0  0  0  0  0
   -2.5597    7.0450    0.0000 H   0  0  0  0  0  0  0  0  0  0  0  0
   -2.9560    9.2690    0.0000 H   0  0  0  0  0  0  0  0  0  0  0  0
    0.1289    2.1408    0.0000 H   0  0  0  0  0  0  0  0  0  0  0  0
    1.8302    1.1491    0.0000 H   0  0  0  0  0  0  0  0  0  0  0  0
    2.0796   -0.8816    0.0000 H   0  0  0  0  0  0  0  0  0  0  0  0
  1  2  1  0
  2  3  1  0
  3  4  1  0
  4  5  1  0
  5  6  1  0
  6  7  2  0
  5  8  2  0
  8  9  1  0
  9 10  1  0
 10 11  1  0
 11 12  1  0
 12 13  1  0
 13 14  1  0
 14 15  1  0
 15 16  1  0
 16 17  1  0
 17 18  1  0
 18 19  1  0
 19 20  1  0
 20 21  1  0
 21 22  1  0
 22 23  1  0
 23 24  1  0
 24 25  1  0
 25 26  1  0
 26 27  1  0
 27 28  1  0
 28 29  1  0
 29 30  1  0
 30 31  1  0
 21 32  1  0
 32 33  1  0
 14 34  1  0
 34 35  1  0
 35 36  1  0
 36  3  1  0
 36 13  1  0
 18 16  1  0
 32 19  1  0
 36 34  1  0
 19 17  1  0
 24 22  1  0
 31 26  1  0
 31 27  1  0
 31 28  1  0
  1 37  1  0
  1 38  1  0
  2 39  1  0
  2 40  1  0
  3 41  1  0
  4 42  1  0
  4 43  1  0
  6 44  1  0
  8 45  1  0
  9 46  1  0
  9 47  1  0
 10 48  1  0
 10 49  1  0
 11 50  1  0
 11 51  1  0
 12 52  1  0
 12 53  1  0
 13 54  1  0
 14 55  1  0
 15 56  1  0
 15 57  1  0
 16 58  1  0
 17 59  1  0
 18 60  1  0
 20 61  1  0
 20 62  1  0
 21 63  1  0
 22 64  1  0
 23 65  1  0
 23 66  1  0
 24 67  1  0
 25 68  1  0
 25 69  1  0
 26 70  1  0
 27 71  1  0
 28 72  1  0
 29 73  1  0
 29 74  1  0
 30 75  1  0
 30 76  1  0
 32 77  1  0
 33 78  1  0
 34 79  1  0
 35 80  1  0
 35 81  1  0
M  END
$$$$
