
     RDKit          2D

 76 79  0  0  0  0  0  0  0  0999 V2000
    5.7348   -0.5947    0.0000 C   0  0  0  0  0  0  0  0  0  0  0  0
    5.4229   -2.0619    0.0000 As  0  0  0  0  0  3  0  0  0  0  0  0
    3.9963   -2.5254    0.0000 C   0  0  0  0  0  0  0  0  0  0  0  0
    3.3507   -1.7827    0.0000 Se  0  0  0  0  0  2  0  0  0  0  0  0
    3.6844   -3.9927    0.0000 C   0  0  0  0  0  0  0  0  0  0  0  0
    3.3726   -5.4599    0.0000 C   0  0  0  0  0  0  0  0  0  0  0  0
    3.0607   -6.9271    0.0000 N   0  0  0  0  0  0  0  0  0  0  0  0
    1.6341   -7.3906    0.0000 C   0  0  0  0  0  0  0  0  0  0  0  0
    0.2075   -7.8542    0.0000 C   0  0  0  0  0  0  0  0  0  0  0  0
    2.2172   -3.6808    0.0000 C   0  0  0  0  0  0  0  0  0  0  0  0
    0.7500   -3.3689    0.0000 C   0  0  0  0  0  0  0  0  0  0  0  0
   -0.7500   -3.3689    0.0000 C   0  0  0  0  0  0  0  0  0  0  0  0
   -1.2135   -1.9423    0.0000 C   0  0  0  0  0  0  0  0  0  0  0  0
   -0.0000   -1.0607    0.0000 C   0  0  0  0  0  0  0  0  0  0  0  0
    1.0607    0.0000    0.0000 C   0  0  0  0  0  0  0  0  0  0  0  0
   -0.0000    1.0607    0.0000 C   0  0  0  0  0  0  0  0  0  0  0  0
   -1.0607   -0.0000    0.0000 C   0  0  0  0  0  0  0  0  0  0  0  0
   -2.1213   -1.0607    0.0000 C   0  0  0  0  0  0  0  0  0  0  0  0
    1.2135   -1.9423    0.0000 C   0  0  0  0  0  0  0  0  0  0  0  0
    1.9635   -0.6433    0.0000 C   0  0  0  0  0  0  0  0  0  0  0  0
    2.9225   -0.8647    0.0000 Cl  0  0  0  0  0  0  0  0  0  0  0  0
    2.2240    0.8339    0.0000 C   0  0  0  0  0  0  0  0  0  0  0  0
    0.8145    0.3209    0.0000 C   0  0  0  0  0  0  0  0  0  0  0  0
    0.0645    1.6199    0.0000 C   0  0  0  0  0  0  0  0  0  0  0  0
    5.1517   -4.3045    0.0000 C   0  0  0  0  0  0  0  0  0  0  0  0
    6.4237   -5.0994    0.0000 C   0  0  0  0  0  0  0  0  0  0  0  0
    7.4274   -3.9847    0.0000 C   0  0  0  0  0  0  0  0  0  0  0  0
    5.0993   -5.8036    0.0000 C   0  0  0  0  0  0  0  0  0  0  0  0
    5.5628   -7.2302    0.0000 C   0  0  0  0  0  0  0  0  0  0  0  0
    6.0264   -8.6568    0.0000 C   0  0  0  0  0  0  0  0  0  0  0  0
    6.4899  -10.0834    0.0000 C   0  0  0  0  0  0  0  0  0  0  0  0
    7.1613   -0.1312    0.0000 H   0  0  0  0  0  0  0  0  0  0  0  0
    4.6200    0.4090    0.0000 H   0  0  0  0  0  0  0  0  0  0  0  0
    4.7207   -6.1175    0.0000 H   0  0  0  0  0  0  0  0  0  0  0  0
    1.8783   -5.3292    0.0000 H   0  0  0  0  0  0  0  0  0  0  0  0
    4.0448   -8.0592    0.0000 H   0  0  0  0  0  0  0  0  0  0  0  0
    1.1706   -5.9640    0.0000 H   0  0  0  0  0  0  0  0  0  0  0  0
    2.0976   -8.8172    0.0000 H   0  0  0  0  0  0  0  0  0  0  0  0
   -1.2190   -8.3177    0.0000 H   0  0  0  0  0  0  0  0  0  0  0  0
    0.6711   -9.2807    0.0000 H   0  0  0  0  0  0  0  0  0  0  0  0
   -0.2560   -6.4276    0.0000 H   0  0  0  0  0  0  0  0  0  0  0  0
    2.5291   -2.2136    0.0000 H   0  0  0  0  0  0  0  0  0  0  0  0
    1.7288   -5.0991    0.0000 H   0  0  0  0  0  0  0  0  0  0  0  0
    0.5932   -4.8607    0.0000 H   0  0  0  0  0  0  0  0  0  0  0  0
   -0.5932   -4.8607    0.0000 H   0  0  0  0  0  0  0  0  0  0  0  0
   -2.2172   -3.6808    0.0000 H   0  0  0  0  0  0  0  0  0  0  0  0
   -2.4993   -2.7149    0.0000 H   0  0  0  0  0  0  0  0  0  0  0  0
   -2.2556   -0.8634    0.0000 H   0  0  0  0  0  0  0  0  0  0  0  0
    1.8331    1.2858    0.0000 H   0  0  0  0  0  0  0  0  0  0  0  0
    2.2427   -0.9235    0.0000 H   0  0  0  0  0  0  0  0  0  0  0  0
   -1.1820    1.9841    0.0000 H   0  0  0  0  0  0  0  0  0  0  0  0
    1.1820    1.9841    0.0000 H   0  0  0  0  0  0  0  0  0  0  0  0
   -2.2427    0.9235    0.0000 H   0  0  0  0  0  0  0  0  0  0  0  0
   -3.3034   -1.9841    0.0000 H   0  0  0  0  0  0  0  0  0  0  0  0
   -3.1820   -0.0000    0.0000 H   0  0  0  0  0  0  0  0  0  0  0  0
   -1.3488   -2.3465    0.0000 H   0  0  0  0  0  0  0  0  0  0  0  0
    2.6480   -2.3809    0.0000 H   0  0  0  0  0  0  0  0  0  0  0  0
    3.7240    0.8339    0.0000 H   0  0  0  0  0  0  0  0  0  0  0  0
    2.1455    2.3319    0.0000 H   0  0  0  0  0  0  0  0  0  0  0  0
   -0.5338   -0.3366    0.0000 H   0  0  0  0  0  0  0  0  0  0  0  0
   -0.5216    3.0007    0.0000 H   0  0  0  0  0  0  0  0  0  0  0  0
    1.1434    2.6620    0.0000 H   0  0  0  0  0  0  0  0  0  0  0  0
   -1.3163    1.0339    0.0000 H   0  0  0  0  0  0  0  0  0  0  0  0
    5.8789   -2.9926    0.0000 H   0  0  0  0  0  0  0  0  0  0  0  0
    7.4844   -6.1600    0.0000 H   0  0  0  0  0  0  0  0  0  0  0  0
    8.4311   -2.8700    0.0000 H   0  0  0  0  0  0  0  0  0  0  0  0
    8.5421   -4.9884    0.0000 H   0  0  0  0  0  0  0  0  0  0  0  0
    6.4434   -2.8526    0.0000 H   0  0  0  0  0  0  0  0  0  0  0  0
    3.7086   -6.3656    0.0000 H   0  0  0  0  0  0  0  0  0  0  0  0
    4.2034   -7.8642    0.0000 H   0  0  0  0  0  0  0  0  0  0  0  0
    7.0353   -6.9440    0.0000 H   0  0  0  0  0  0  0  0  0  0  0  0
    7.4530   -8.1933    0.0000 H   0  0  0  0  0  0  0  0  0  0  0  0
    4.5998   -9.1203    0.0000 H   0  0  0  0  0  0  0  0  0  0  0  0
    6.9534  -11.5100    0.0000 H   0  0  0  0  0  0  0  0  0  0  0  0
    5.0633  -10.5469    0.0000 H   0  0  0  0  0  0  0  0  0  0  0  0
    7.9165   -9.6198    0.0000 H   0  0  0  0  0  0  0  0  0  0  0  0
  1  2  2  3
  2  3  1  0
  3  4  2  0
  3  5  1  0
  5  6  1  0
  6  7  1  0
  7  8  1  0
  8  9  1  0
  5 10  1  0
 10 11  1  0
 11 12  1  0
 12 13  1  0
 13 14  1  0
 14 15  1  0
 15 16  1  0
 16 17  1  0
 17 18  1  0
 14 19  1  0
 19 20  1  0
 20 21  1  0
 20 22  1  0
 22 23  1  0
 23 24  1  0
  5 25  1  0
 25 26  1  0
 26 27  1  0
 26 28  1  0
 28 29  1  0
 29 30  1  0
 30 31  1  0
 19 11  1  0
 23 20  1  0
 28 25  1  0
 17 14  1  0
  1 32  1  0
  1 33  1  0
  6 34  1  0
  6 35  1  0
  7 36  1  0
  8 37  1  0
  8 38  1  0
  9 39  1  0
  9 40  1  0
  9 41  1  0
 10 42  1  0
 10 43  1  0
 11 44  1  0
 12 45  1  0
 12 46  1  0
 13 47  1  0
 13 48  1  0
 15 49  1  0
 15 50  1  0
 16 51  1  0
 16 52  1  0
 17 53  1  0
 18 54  1  0
 18 55  1  0
 18 56  1  0
 19 57  1  0
 22 58  1  0
 22 59  1  0
 23 60  1  0
 24 61  1  0
 24 62  1  0
 24 63  1  0
 25 64  1  0
 26 65  1  0
 27 66  1  0
 27 67  1  0
 27 68  1  0
 28 69  1  0
 29 70  1  0
 29 71  1  0
 30 72  1  0
 30 73  1  0
 31 74  1  0
 31 75  1  0
 31 76  1  0
M  END
$$$$
