
     RDKit          2D

107114  0  0  0  0  0  0  0  0999 V2000
   -4.5983    9.3052    0.0000 C   0  0  0  0  0  0  0  0  0  0  0  0
   -4.9091    7.8377    0.0000 C   0  0  0  0  0  0  0  0  0  0  0  0
   -3.5886    7.1261    0.0000 C   0  0  0  0  0  0  0  0  0  0  0  0
   -2.8625    5.8136    0.0000 C   0  0  0  0  0  0  0  0  0  0  0  0
   -2.9613    4.3168    0.0000 C   0  0  0  0  0  0  0  0  0  0  0  0
   -1.7157    5.1526    0.0000 C   0  0  0  0  0  0  0  0  0  0  0  0
   -0.6711    6.2290    0.0000 C   0  0  0  0  0  0  0  0  0  0  0  0
   -0.5360    4.2262    0.0000 C   0  0  0  0  0  0  0  0  0  0  0  0
   -1.0524    2.8179    0.0000 C   0  0  0  0  0  0  0  0  0  0  0  0
   -2.5514    2.8739    0.0000 C   0  0  0  0  0  0  0  0  0  0  0  0
    0.4254    3.0748    0.0000 C   0  0  0  0  0  0  0  0  0  0  0  0
    1.8337    2.5583    0.0000 O   0  0  0  0  0  0  0  0  0  0  0  0
    2.9851    3.5197    0.0000 C   0  0  0  0  0  0  0  0  0  0  0  0
    2.0237    4.6711    0.0000 C   0  0  0  0  0  0  0  0  0  0  0  0
    4.1365    4.4811    0.0000 C   0  0  0  0  0  0  0  0  0  0  0  0
   -3.8536    3.1111    0.0000 C   0  0  0  0  0  0  0  0  0  0  0  0
   -2.6219    2.2597    0.0000 S   0  0  0  0  0  0  0  0  0  0  0  0
   -1.6658    1.5998    0.0000 C   0  0  0  0  0  0  0  0  0  0  0  0
   -0.4330    0.7500    0.0000 N   0  0  0  0  0  0  0  0  0  0  0  0
    0.8660    0.0000    0.0000 C   0  0  0  0  0  0  0  0  0  0  0  0
   -0.4330   -0.7500    0.0000 C   0  0  0  0  0  0  0  0  0  0  0  0
   -1.1301   -2.0782    0.0000 N   0  0  0  0  0  0  0  0  0  0  0  0
   -2.3646   -2.9303    0.0000 C   0  0  0  0  0  0  0  0  0  0  0  0
   -2.9525   -4.3103    0.0000 C   0  0  0  0  0  0  0  0  0  0  0  0
   -3.9770   -5.4059    0.0000 C   0  0  0  0  0  0  0  0  0  0  0  0
   -5.0015   -6.5016    0.0000 C   0  0  0  0  0  0  0  0  0  0  0  0
   -3.8536   -3.1111    0.0000 C   0  0  0  0  0  0  0  0  0  0  0  0
   -5.2562   -2.5792    0.0000 C   0  0  0  0  0  0  0  0  0  0  0  0
   -6.2508   -1.4564    0.0000 C   0  0  0  0  0  0  0  0  0  0  0  0
   -6.6098    0.0000    0.0000 C   0  0  0  0  0  0  0  0  0  0  0  0
   -5.6151   -1.1228    0.0000 C   0  0  0  0  0  0  0  0  0  0  0  0
   -6.2508    1.4564    0.0000 C   0  0  0  0  0  0  0  0  0  0  0  0
   -5.2562    2.5792    0.0000 C   0  0  0  0  0  0  0  0  0  0  0  0
   -6.7236    2.8900    0.0000 C   0  0  0  0  0  0  0  0  0  0  0  0
   -7.7901    3.9448    0.0000 C   0  0  0  0  0  0  0  0  0  0  0  0
   -8.1170    5.4087    0.0000 C   0  0  0  0  0  0  0  0  0  0  0  0
   -9.3935    4.6210    0.0000 C   0  0  0  0  0  0  0  0  0  0  0  0
  -10.6700    3.8333    0.0000 C   0  0  0  0  0  0  0  0  0  0  0  0
  -10.6261    2.3339    0.0000 O   0  0  0  0  0  0  0  0  0  0  0  0
  -11.9904    4.5449    0.0000 C   0  0  0  0  0  0  0  0  0  0  0  0
  -13.3109    5.2566    0.0000 C   0  0  0  0  0  0  0  0  0  0  0  0
  -14.6313    5.9682    0.0000 C   0  0  0  0  0  0  0  0  0  0  0  0
  -15.9518    6.6798    0.0000 C   0  0  0  0  0  0  0  0  0  0  0  0
   -7.6005    6.8170    0.0000 C   0  0  0  0  0  0  0  0  0  0  0  0
   -6.4046    7.7225    0.0000 C   0  0  0  0  0  0  0  0  0  0  0  0
   -3.1720    9.7698    0.0000 H   0  0  0  0  0  0  0  0  0  0  0  0
   -5.7137   10.3081    0.0000 H   0  0  0  0  0  0  0  0  0  0  0  0
   -2.5338    8.1926    0.0000 H   0  0  0  0  0  0  0  0  0  0  0  0
   -1.5212    6.4850    0.0000 H   0  0  0  0  0  0  0  0  0  0  0  0
   -2.3699    6.5024    0.0000 H   0  0  0  0  0  0  0  0  0  0  0  0
    0.5247    5.3234    0.0000 H   0  0  0  0  0  0  0  0  0  0  0  0
   -1.7476    7.2736    0.0000 H   0  0  0  0  0  0  0  0  0  0  0  0
    0.3735    7.3055    0.0000 H   0  0  0  0  0  0  0  0  0  0  0  0
    0.5086    5.3027    0.0000 H   0  0  0  0  0  0  0  0  0  0  0  0
   -0.2605    1.5440    0.0000 H   0  0  0  0  0  0  0  0  0  0  0  0
   -3.4778    1.6942    0.0000 H   0  0  0  0  0  0  0  0  0  0  0  0
    3.9465    2.3683    0.0000 H   0  0  0  0  0  0  0  0  0  0  0  0
    3.0494    5.7657    0.0000 H   0  0  0  0  0  0  0  0  0  0  0  0
    0.6739    4.0169    0.0000 H   0  0  0  0  0  0  0  0  0  0  0  0
    1.2099    5.9311    0.0000 H   0  0  0  0  0  0  0  0  0  0  0  0
    3.3227    5.7411    0.0000 H   0  0  0  0  0  0  0  0  0  0  0  0
    5.0979    3.3296    0.0000 H   0  0  0  0  0  0  0  0  0  0  0  0
    5.2879    5.4424    0.0000 H   0  0  0  0  0  0  0  0  0  0  0  0
   -2.9156    4.2816    0.0000 H   0  0  0  0  0  0  0  0  0  0  0  0
   -0.1293    3.1955    0.0000 H   0  0  0  0  0  0  0  0  0  0  0  0
    0.3590    2.2590    0.0000 H   0  0  0  0  0  0  0  0  0  0  0  0
    1.8302    1.1491    0.0000 H   0  0  0  0  0  0  0  0  0  0  0  0
    1.8302   -1.1491    0.0000 H   0  0  0  0  0  0  0  0  0  0  0  0
    0.6488   -1.7891    0.0000 H   0  0  0  0  0  0  0  0  0  0  0  0
   -0.0073   -3.0729    0.0000 H   0  0  0  0  0  0  0  0  0  0  0  0
   -1.2027   -3.8789    0.0000 H   0  0  0  0  0  0  0  0  0  0  0  0
   -1.6956   -5.1289    0.0000 H   0  0  0  0  0  0  0  0  0  0  0  0
   -2.8813   -6.4304    0.0000 H   0  0  0  0  0  0  0  0  0  0  0  0
   -5.1894   -4.5226    0.0000 H   0  0  0  0  0  0  0  0  0  0  0  0
   -3.9058   -7.5260    0.0000 H   0  0  0  0  0  0  0  0  0  0  0  0
   -6.0971   -5.4771    0.0000 H   0  0  0  0  0  0  0  0  0  0  0  0
   -6.0259   -7.5972    0.0000 H   0  0  0  0  0  0  0  0  0  0  0  0
   -4.8942   -4.1915    0.0000 H   0  0  0  0  0  0  0  0  0  0  0  0
   -6.1083   -3.8137    0.0000 H   0  0  0  0  0  0  0  0  0  0  0  0
   -6.9479   -2.7846    0.0000 H   0  0  0  0  0  0  0  0  0  0  0  0
   -7.7399   -1.2756    0.0000 H   0  0  0  0  0  0  0  0  0  0  0  0
   -8.1098    0.0000    0.0000 H   0  0  0  0  0  0  0  0  0  0  0  0
   -4.9180    0.2054    0.0000 H   0  0  0  0  0  0  0  0  0  0  0  0
   -4.1261   -1.3036    0.0000 H   0  0  0  0  0  0  0  0  0  0  0  0
   -7.7399    1.2756    0.0000 H   0  0  0  0  0  0  0  0  0  0  0  0
   -7.3777    2.4465    0.0000 H   0  0  0  0  0  0  0  0  0  0  0  0
   -6.2933    1.4955    0.0000 H   0  0  0  0  0  0  0  0  0  0  0  0
   -7.9784    2.0681    0.0000 H   0  0  0  0  0  0  0  0  0  0  0  0
   -7.0832    1.4337    0.0000 H   0  0  0  0  0  0  0  0  0  0  0  0
   -9.2772    3.7490    0.0000 H   0  0  0  0  0  0  0  0  0  0  0  0
   -8.4381    2.5920    0.0000 H   0  0  0  0  0  0  0  0  0  0  0  0
   -9.3859    6.2087    0.0000 H   0  0  0  0  0  0  0  0  0  0  0  0
   -8.7672    3.2580    0.0000 H   0  0  0  0  0  0  0  0  0  0  0  0
  -10.1812    5.8975    0.0000 H   0  0  0  0  0  0  0  0  0  0  0  0
  -12.7021    3.2245    0.0000 H   0  0  0  0  0  0  0  0  0  0  0  0
  -11.2788    5.8654    0.0000 H   0  0  0  0  0  0  0  0  0  0  0  0
  -12.5993    6.5770    0.0000 H   0  0  0  0  0  0  0  0  0  0  0  0
  -14.0225    3.9361    0.0000 H   0  0  0  0  0  0  0  0  0  0  0  0
  -15.3430    4.6477    0.0000 H   0  0  0  0  0  0  0  0  0  0  0  0
  -13.9197    7.2886    0.0000 H   0  0  0  0  0  0  0  0  0  0  0  0
  -15.2402    8.0003    0.0000 H   0  0  0  0  0  0  0  0  0  0  0  0
  -16.6634    5.3594    0.0000 H   0  0  0  0  0  0  0  0  0  0  0  0
  -17.2722    7.3914    0.0000 H   0  0  0  0  0  0  0  0  0  0  0  0
   -8.2355    8.1760    0.0000 H   0  0  0  0  0  0  0  0  0  0  0  0
   -9.0857    7.0271    0.0000 H   0  0  0  0  0  0  0  0  0  0  0  0
   -6.0244    9.1735    0.0000 H   0  0  0  0  0  0  0  0  0  0  0  0
   -7.5405    8.7022    0.0000 H   0  0  0  0  0  0  0  0  0  0  0  0
  1  2  2  0
  2  3  1  0
  3  4  2  0
  4  5  1  0
  5  6  1  0
  6  7  1  0
  6  8  1  0
  8  9  1  0
  9 10  1  0
 10 11  1  0
 11 12  1  0
 12 13  1  0
 13 14  1  0
 13 15  1  0
  5 16  1  0
 16 17  1  0
 17 18  1  0
 18 19  1  0
 19 20  1  0
 20 21  1  0
 21 22  1  0
 22 23  1  0
 23 24  1  0
 24 25  1  0
 25 26  1  0
 24 27  1  0
 27 28  1  0
 28 29  1  0
 29 30  1  0
 30 31  1  0
 30 32  1  0
 32 33  1  0
 33 34  1  0
 34 35  1  0
 35 36  1  0
 36 37  1  0
 37 38  1  0
 38 39  2  0
 38 40  1  0
 40 41  1  0
 41 42  1  0
 42 43  1  0
 36 44  1  0
 44 45  1  0
 45  2  1  0
 10  5  1  0
 33 16  1  0
 11  8  1  0
 21 19  1  0
 27 23  1  0
 31 28  1  0
 11  9  1  0
  1 46  1  0
  1 47  1  0
  3 48  1  0
  4 49  1  0
  6 50  1  0
  7 51  1  0
  7 52  1  0
  7 53  1  0
  8 54  1  0
  9 55  1  0
 10 56  1  0
 13 57  1  0
 14 58  1  0
 14 59  1  0
 14 60  1  0
 15 61  1  0
 15 62  1  0
 15 63  1  0
 16 64  1  0
 18 65  1  0
 18 66  1  0
 20 67  1  0
 20 68  1  0
 21 69  1  0
 22 70  1  0
 23 71  1  0
 24 72  1  0
 25 73  1  0
 25 74  1  0
 26 75  1  0
 26 76  1  0
 26 77  1  0
 27 78  1  0
 28 79  1  0
 29 80  1  0
 29 81  1  0
 30 82  1  0
 31 83  1  0
 31 84  1  0
 32 85  1  0
 32 86  1  0
 33 87  1  0
 34 88  1  0
 34 89  1  0
 35 90  1  0
 35 91  1  0
 36 92  1  0
 37 93  1  0
 37 94  1  0
 40 95  1  0
 40 96  1  0
 41 97  1  0
 41 98  1  0
 42 99  1  0
 42100  1  0
 43101  1  0
 43102  1  0
 43103  1  0
 44104  1  0
 44105  1  0
 45106  1  0
 45107  1  0
M  END
$$$$
