
     RDKit          2D

103115  0  0  0  0  0  0  0  0999 V2000
    1.1537    4.2953    0.0000 C   0  0  0  0  0  0  0  0  0  0  0  0
    1.9353    3.0150    0.0000 C   0  0  0  0  0  0  0  0  0  0  0  0
    2.7168    1.7347    0.0000 C   0  0  0  0  0  0  0  0  0  0  0  0
    3.4984    0.4544    0.0000 C   0  0  0  0  0  0  0  0  0  0  0  0
    2.0763   -0.0227    0.0000 C   0  0  0  0  0  0  0  0  0  0  0  0
    1.5626   -1.4320    0.0000 C   0  0  0  0  0  0  0  0  0  0  0  0
    1.5772   -2.9319    0.0000 C   0  0  0  0  0  0  0  0  0  0  0  0
    0.5270   -4.0029    0.0000 C   0  0  0  0  0  0  0  0  0  0  0  0
   -0.9730   -4.0175    0.0000 C   0  0  0  0  0  0  0  0  0  0  0  0
   -2.0439   -2.9672    0.0000 C   0  0  0  0  0  0  0  0  0  0  0  0
   -3.5357   -3.1240    0.0000 N   0  0  0  0  0  0  0  0  0  0  0  0
   -4.1458   -1.7537    0.0000 C   0  0  0  0  0  0  0  0  0  0  0  0
   -3.0248    0.5691    0.0000 N   0  0  0  0  0  0  0  0  0  0  0  0
   -1.7811    1.4077    0.0000 C   0  0  0  0  0  0  0  0  0  0  0  0
   -0.8993    2.6211    0.0000 C   0  0  0  0  0  0  0  0  0  0  0  0
    0.2155    3.6247    0.0000 C   0  0  0  0  0  0  0  0  0  0  0  0
   -0.3944    4.9951    0.0000 C   0  0  0  0  0  0  0  0  0  0  0  0
   -1.2760    6.2087    0.0000 C   0  0  0  0  0  0  0  0  0  0  0  0
   -0.2339    7.2876    0.0000 C   0  0  0  0  0  0  0  0  0  0  0  0
    0.8083    8.3665    0.0000 C   0  0  0  0  0  0  0  0  0  0  0  0
    1.8504    9.4454    0.0000 C   0  0  0  0  0  0  0  0  0  0  0  0
   -1.8862    4.8385    0.0000 C   0  0  0  0  0  0  0  0  0  0  0  0
   -2.1983    3.3713    0.0000 C   0  0  0  0  0  0  0  0  0  0  0  0
   -0.4330    0.7500    0.0000 C   0  0  0  0  0  0  0  0  0  0  0  0
    0.8660    0.0000    0.0000 C   0  0  0  0  0  0  0  0  0  0  0  0
    2.3660    0.0000    0.0000 C   0  0  0  0  0  0  0  0  0  0  0  0
   -0.4330   -0.7500    0.0000 C   0  0  0  0  0  0  0  0  0  0  0  0
   -1.7321   -1.5000    0.0000 C   0  0  0  0  0  0  0  0  0  0  0  0
   -3.0311   -0.7500    0.0000 N   0  0  0  0  0  0  0  0  0  0  0  0
   -1.7321    0.0000    0.0000 C   0  0  0  0  0  0  0  0  0  0  0  0
    2.3442   -2.7123    0.0000 C   0  0  0  0  0  0  0  0  0  0  0  0
    3.8325   -2.8995    0.0000 C   0  0  0  0  0  0  0  0  0  0  0  0
    4.6192   -4.2846    0.0000 C   0  0  0  0  0  0  0  0  0  0  0  0
    6.0285   -4.7983    0.0000 C   0  0  0  0  0  0  0  0  0  0  0  0
    7.4706   -4.3855    0.0000 C   0  0  0  0  0  0  0  0  0  0  0  0
    8.3946   -3.2039    0.0000 C   0  0  0  0  0  0  0  0  0  0  0  0
    8.4477   -1.7048    0.0000 C   0  0  0  0  0  0  0  0  0  0  0  0
    7.6094   -0.4609    0.0000 C   0  0  0  0  0  0  0  0  0  0  0  0
    6.2001    0.0528    0.0000 C   0  0  0  0  0  0  0  0  0  0  0  0
    4.7581   -0.3600    0.0000 C   0  0  0  0  0  0  0  0  0  0  0  0
    4.9067   -1.8526    0.0000 C   0  0  0  0  0  0  0  0  0  0  0  0
    5.9536   -2.9269    0.0000 C   0  0  0  0  0  0  0  0  0  0  0  0
    4.8793   -3.9738    0.0000 C   0  0  0  0  0  0  0  0  0  0  0  0
    7.5236   -2.8864    0.0000 C   0  0  0  0  0  0  0  0  0  0  0  0
    0.7051    5.7266    0.0000 H   0  0  0  0  0  0  0  0  0  0  0  0
    2.4340    5.0768    0.0000 H   0  0  0  0  0  0  0  0  0  0  0  0
   -0.2777    3.8467    0.0000 H   0  0  0  0  0  0  0  0  0  0  0  0
    0.8821    1.9468    0.0000 H   0  0  0  0  0  0  0  0  0  0  0  0
    3.2155    3.7965    0.0000 H   0  0  0  0  0  0  0  0  0  0  0  0
    1.3508    1.1150    0.0000 H   0  0  0  0  0  0  0  0  0  0  0  0
    3.9971    2.5162    0.0000 H   0  0  0  0  0  0  0  0  0  0  0  0
    4.4371    1.6244    0.0000 H   0  0  0  0  0  0  0  0  0  0  0  0
    0.6775    0.5191    0.0000 H   0  0  0  0  0  0  0  0  0  0  0  0
    1.5709    1.3896    0.0000 H   0  0  0  0  0  0  0  0  0  0  0  0
    2.1767   -4.3069    0.0000 H   0  0  0  0  0  0  0  0  0  0  0  0
    3.0767   -2.8912    0.0000 H   0  0  0  0  0  0  0  0  0  0  0  0
    1.1145   -5.3830    0.0000 H   0  0  0  0  0  0  0  0  0  0  0  0
   -1.5335   -5.4088    0.0000 H   0  0  0  0  0  0  0  0  0  0  0  0
   -0.8003   -3.8059    0.0000 H   0  0  0  0  0  0  0  0  0  0  0  0
   -4.2857   -4.4231    0.0000 H   0  0  0  0  0  0  0  0  0  0  0  0
   -5.6130   -1.4418    0.0000 H   0  0  0  0  0  0  0  0  0  0  0  0
   -4.3729    1.2268    0.0000 H   0  0  0  0  0  0  0  0  0  0  0  0
   -2.9468    2.3518    0.0000 H   0  0  0  0  0  0  0  0  0  0  0  0
    0.0846    1.4889    0.0000 H   0  0  0  0  0  0  0  0  0  0  0  0
    0.9425    2.3127    0.0000 H   0  0  0  0  0  0  0  0  0  0  0  0
    1.2946    4.6666    0.0000 H   0  0  0  0  0  0  0  0  0  0  0  0
    0.9047    5.7449    0.0000 H   0  0  0  0  0  0  0  0  0  0  0  0
   -2.5194    7.0476    0.0000 H   0  0  0  0  0  0  0  0  0  0  0  0
   -1.3128    8.3297    0.0000 H   0  0  0  0  0  0  0  0  0  0  0  0
    1.0651    6.5375    0.0000 H   0  0  0  0  0  0  0  0  0  0  0  0
    1.8871    7.3244    0.0000 H   0  0  0  0  0  0  0  0  0  0  0  0
   -0.2706    9.4086    0.0000 H   0  0  0  0  0  0  0  0  0  0  0  0
    2.8925   10.5243    0.0000 H   0  0  0  0  0  0  0  0  0  0  0  0
    0.7715   10.4875    0.0000 H   0  0  0  0  0  0  0  0  0  0  0  0
    2.9293    8.4033    0.0000 H   0  0  0  0  0  0  0  0  0  0  0  0
   -3.3128    5.3022    0.0000 H   0  0  0  0  0  0  0  0  0  0  0  0
   -3.6248    3.8350    0.0000 H   0  0  0  0  0  0  0  0  0  0  0  0
   -2.9710    2.0856    0.0000 H   0  0  0  0  0  0  0  0  0  0  0  0
    3.8214    0.3630    0.0000 H   0  0  0  0  0  0  0  0  0  0  0  0
    2.1832    1.4888    0.0000 H   0  0  0  0  0  0  0  0  0  0  0  0
    2.3660   -1.5000    0.0000 H   0  0  0  0  0  0  0  0  0  0  0  0
    2.4929   -4.2049    0.0000 H   0  0  0  0  0  0  0  0  0  0  0  0
    1.0798   -3.5193    0.0000 H   0  0  0  0  0  0  0  0  0  0  0  0
    4.3839   -5.7660    0.0000 H   0  0  0  0  0  0  0  0  0  0  0  0
    3.3199   -5.0341    0.0000 H   0  0  0  0  0  0  0  0  0  0  0  0
    6.8667   -6.0422    0.0000 H   0  0  0  0  0  0  0  0  0  0  0  0
    5.2554   -6.0837    0.0000 H   0  0  0  0  0  0  0  0  0  0  0  0
    8.3088   -5.6294    0.0000 H   0  0  0  0  0  0  0  0  0  0  0  0
    9.8367   -2.7911    0.0000 H   0  0  0  0  0  0  0  0  0  0  0  0
    9.2329   -4.4478    0.0000 H   0  0  0  0  0  0  0  0  0  0  0  0
    9.8898   -1.2920    0.0000 H   0  0  0  0  0  0  0  0  0  0  0  0
    7.8448    1.0205    0.0000 H   0  0  0  0  0  0  0  0  0  0  0  0
    9.0515   -0.0481    0.0000 H   0  0  0  0  0  0  0  0  0  0  0  0
    5.5198    1.3896    0.0000 H   0  0  0  0  0  0  0  0  0  0  0  0
    6.9733    1.3382    0.0000 H   0  0  0  0  0  0  0  0  0  0  0  0
    5.8112    0.7081    0.0000 H   0  0  0  0  0  0  0  0  0  0  0  0
    6.1791   -1.0583    0.0000 H   0  0  0  0  0  0  0  0  0  0  0  0
    7.2293   -3.7159    0.0000 H   0  0  0  0  0  0  0  0  0  0  0  0
    6.8923   -1.7569    0.0000 H   0  0  0  0  0  0  0  0  0  0  0  0
    3.6854   -4.8819    0.0000 H   0  0  0  0  0  0  0  0  0  0  0  0
    6.1550   -4.7628    0.0000 H   0  0  0  0  0  0  0  0  0  0  0  0
    6.2243   -3.6359    0.0000 H   0  0  0  0  0  0  0  0  0  0  0  0
    7.0113   -1.4766    0.0000 H   0  0  0  0  0  0  0  0  0  0  0  0
  1  2  1  0
  2  3  1  0
  3  4  1  0
  4  5  1  0
  5  6  1  0
  6  7  1  0
  7  8  1  0
  8  9  2  0
  9 10  1  0
 10 11  1  0
 11 12  1  0
 12 13  1  0
 13 14  1  0
 14 15  1  0
 15 16  1  0
 16 17  1  0
 17 18  1  0
 18 19  1  0
 19 20  1  0
 20 21  1  0
 18 22  1  0
 22 23  1  0
 14 24  1  0
 24 25  1  0
 25 26  1  0
 25 27  1  0
 27 28  1  0
 28 29  1  0
 29 30  1  0
  6 31  1  0
 31 32  1  0
 32 33  1  0
 33 34  1  0
 34 35  1  0
 35 36  1  0
 36 37  1  0
 37 38  1  0
 38 39  1  0
 39 40  1  0
 40 41  1  0
 41 42  1  0
 42 43  1  0
 37 44  1  0
 40  4  1  0
 25  6  1  0
 30 27  1  0
 41 32  1  0
 28 10  1  0
 43 32  1  0
 29 12  1  0
 44 35  1  0
 23 15  1  0
 27 24  1  0
 30 28  1  0
 22 17  1  0
 30 24  1  0
  1 45  1  0
  1 46  1  0
  1 47  1  0
  2 48  1  0
  2 49  1  0
  3 50  1  0
  3 51  1  0
  4 52  1  0
  5 53  1  0
  5 54  1  0
  7 55  1  0
  7 56  1  0
  8 57  1  0
  9 58  1  0
 10 59  1  0
 11 60  1  0
 12 61  1  0
 13 62  1  0
 14 63  1  0
 15 64  1  0
 16 65  1  0
 16 66  1  0
 17 67  1  0
 18 68  1  0
 19 69  1  0
 19 70  1  0
 20 71  1  0
 20 72  1  0
 21 73  1  0
 21 74  1  0
 21 75  1  0
 22 76  1  0
 23 77  1  0
 23 78  1  0
 26 79  1  0
 26 80  1  0
 26 81  1  0
 31 82  1  0
 31 83  1  0
 33 84  1  0
 33 85  1  0
 34 86  1  0
 34 87  1  0
 35 88  1  0
 36 89  1  0
 36 90  1  0
 37 91  1  0
 38 92  1  0
 38 93  1  0
 39 94  1  0
 39 95  1  0
 40 96  1  0
 41 97  1  0
 42 98  1  0
 42 99  1  0
 43100  1  0
 43101  1  0
 44102  1  0
 44103  1  0
M  END
$$$$
