
     RDKit          2D

 28 28  0  0  0  0  0  0  0  0999 V2000
    4.9472    2.8925    0.0000 C   0  0  0  0  0  0  0  0  0  0  0  0
    3.7981    1.9284    0.0000 C   0  0  0  0  0  0  0  0  0  0  0  0
    2.6491    0.9642    0.0000 C   0  0  0  0  0  0  0  0  0  0  0  0
    1.5000    0.0000    0.0000 C   0  0  0  0  0  0  0  0  0  0  0  0
    0.7500   -1.2990    0.0000 N   0  0  0  0  0  0  0  0  0  0  0  0
   -0.7500   -1.2990    0.0000 O   0  0  0  0  0  0  0  0  0  0  0  0
   -1.5000    0.0000    0.0000 C   0  0  0  0  0  0  0  0  0  0  0  0
   -2.6491   -0.9642    0.0000 O   0  0  0  0  0  0  0  0  0  0  0  0
   -0.7500    1.2990    0.0000 C   0  0  0  0  0  0  0  0  0  0  0  0
    0.7500    1.2990    0.0000 C   0  0  0  0  0  0  0  0  0  0  0  0
    0.4895    2.7762    0.0000 C   0  0  0  0  0  0  0  0  0  0  0  0
    6.0963    3.8567    0.0000 H   0  0  0  0  0  0  0  0  0  0  0  0
    5.9114    1.7435    0.0000 H   0  0  0  0  0  0  0  0  0  0  0  0
    3.9830    4.0416    0.0000 H   0  0  0  0  0  0  0  0  0  0  0  0
    2.9812    3.1864    0.0000 H   0  0  0  0  0  0  0  0  0  0  0  0
    4.7623    0.7793    0.0000 H   0  0  0  0  0  0  0  0  0  0  0  0
    2.2149    1.6327    0.0000 H   0  0  0  0  0  0  0  0  0  0  0  0
    3.6132   -0.1849    0.0000 H   0  0  0  0  0  0  0  0  0  0  0  0
    2.6491   -0.9642    0.0000 H   0  0  0  0  0  0  0  0  0  0  0  0
    1.5000   -2.5981    0.0000 H   0  0  0  0  0  0  0  0  0  0  0  0
   -2.6491    0.9642    0.0000 H   0  0  0  0  0  0  0  0  0  0  0  0
   -4.0586   -0.4512    0.0000 H   0  0  0  0  0  0  0  0  0  0  0  0
   -2.1595    1.8121    0.0000 H   0  0  0  0  0  0  0  0  0  0  0  0
   -0.6715    2.7970    0.0000 H   0  0  0  0  0  0  0  0  0  0  0  0
    1.4603    1.6610    0.0000 H   0  0  0  0  0  0  0  0  0  0  0  0
    0.2291    4.2535    0.0000 H   0  0  0  0  0  0  0  0  0  0  0  0
    1.9240    3.2148    0.0000 H   0  0  0  0  0  0  0  0  0  0  0  0
   -1.0084    2.6978    0.0000 H   0  0  0  0  0  0  0  0  0  0  0  0
  1  2  1  0
  2  3  1  0
  3  4  1  0
  4  5  1  0
  5  6  1  0
  6  7  1  0
  7  8  1  0
  7  9  1  0
  9 10  1  0
 10 11  1  0
 10  4  1  0
  1 12  1  0
  1 13  1  0
  1 14  1  0
  2 15  1  0
  2 16  1  0
  3 17  1  0
  3 18  1  0
  4 19  1  1
  5 20  1  0
  7 21  1  1
  8 22  1  0
  9 23  1  0
  9 24  1  0
 10 25  1  6
 11 26  1  0
 11 27  1  0
 11 28  1  0
M  END
$$$$
