
     RDKit          2D

 88 94  0  0  0  0  0  0  0  0999 V2000
    5.4118    1.8282    0.0000 C   0  0  0  0  0  0  0  0  0  0  0  0
    5.4990    0.3307    0.0000 C   0  0  0  0  0  0  0  0  0  0  0  0
    4.0015    0.2435    0.0000 C   0  0  0  0  0  0  0  0  0  0  0  0
    3.1773    1.4968    0.0000 C   0  0  0  0  0  0  0  0  0  0  0  0
    1.6798    1.4095    0.0000 C   0  0  0  0  0  0  0  0  0  0  0  0
    2.1929    0.0000    0.0000 C   0  0  0  0  0  0  0  0  0  0  0  0
    1.6798   -1.4095    0.0000 C   0  0  0  0  0  0  0  0  0  0  0  0
    0.3808   -2.1595    0.0000 C   0  0  0  0  0  0  0  0  0  0  0  0
   -1.0964   -1.8991    0.0000 C   0  0  0  0  0  0  0  0  0  0  0  0
   -2.0606   -0.7500    0.0000 C   0  0  0  0  0  0  0  0  0  0  0  0
   -2.0606    0.7500    0.0000 C   0  0  0  0  0  0  0  0  0  0  0  0
   -1.0964    1.8991    0.0000 C   0  0  0  0  0  0  0  0  0  0  0  0
   -0.9223    3.3889    0.0000 C   0  0  0  0  0  0  0  0  0  0  0  0
   -0.7481    4.8788    0.0000 C   0  0  0  0  0  0  0  0  0  0  0  0
   -1.0941    6.3383    0.0000 C   0  0  0  0  0  0  0  0  0  0  0  0
   -2.1851    5.3090    0.0000 C   0  0  0  0  0  0  0  0  0  0  0  0
   -2.8583    3.9685    0.0000 C   0  0  0  0  0  0  0  0  0  0  0  0
   -3.5315    2.6281    0.0000 C   0  0  0  0  0  0  0  0  0  0  0  0
   -4.2047    1.2876    0.0000 C   0  0  0  0  0  0  0  0  0  0  0  0
   -5.2958    0.2583    0.0000 C   0  0  0  0  0  0  0  0  0  0  0  0
   -6.6731   -0.3358    0.0000 N   0  0  0  0  0  0  0  0  0  0  0  0
   -5.6417    1.7178    0.0000 C   0  0  0  0  0  0  0  0  0  0  0  0
   -5.6505    3.2178    0.0000 F   0  0  0  0  0  0  0  0  0  0  0  0
    0.3808    2.1595    0.0000 C   0  0  0  0  0  0  0  0  0  0  0  0
    6.9965    0.4180    0.0000 C   0  0  0  0  0  0  0  0  0  0  0  0
    8.4431    0.8146    0.0000 C   0  0  0  0  0  0  0  0  0  0  0  0
    9.2673   -0.4386    0.0000 C   0  0  0  0  0  0  0  0  0  0  0  0
    9.8130   -1.8358    0.0000 C   0  0  0  0  0  0  0  0  0  0  0  0
    9.8479   -3.3354    0.0000 C   0  0  0  0  0  0  0  0  0  0  0  0
   11.2838   -1.5411    0.0000 C   0  0  0  0  0  0  0  0  0  0  0  0
   12.7545   -1.2463    0.0000 C   0  0  0  0  0  0  0  0  0  0  0  0
   14.2374   -1.4723    0.0000 C   0  0  0  0  0  0  0  0  0  0  0  0
   13.3002   -2.6435    0.0000 C   0  0  0  0  0  0  0  0  0  0  0  0
    8.3302   -1.6098    0.0000 C   0  0  0  0  0  0  0  0  0  0  0  0
    7.1700   -2.5606    0.0000 C   0  0  0  0  0  0  0  0  0  0  0  0
    6.9267   -1.0804    0.0000 C   0  0  0  0  0  0  0  0  0  0  0  0
    6.8875    2.0973    0.0000 H   0  0  0  0  0  0  0  0  0  0  0  0
    4.5414    1.9922    0.0000 H   0  0  0  0  0  0  0  0  0  0  0  0
    5.3246    3.3257    0.0000 H   0  0  0  0  0  0  0  0  0  0  0  0
    5.4030   -1.1662    0.0000 H   0  0  0  0  0  0  0  0  0  0  0  0
    3.8268   -0.5342    0.0000 H   0  0  0  0  0  0  0  0  0  0  0  0
    3.5748    2.2883    0.0000 H   0  0  0  0  0  0  0  0  0  0  0  0
    2.2011    2.8161    0.0000 H   0  0  0  0  0  0  0  0  0  0  0  0
    3.2019    0.4213    0.0000 H   0  0  0  0  0  0  0  0  0  0  0  0
    2.8323   -0.4760    0.0000 H   0  0  0  0  0  0  0  0  0  0  0  0
    3.1117   -1.8565    0.0000 H   0  0  0  0  0  0  0  0  0  0  0  0
    2.0257   -2.8691    0.0000 H   0  0  0  0  0  0  0  0  0  0  0  0
    0.6413   -3.6368    0.0000 H   0  0  0  0  0  0  0  0  0  0  0  0
   -1.8464   -3.1981    0.0000 H   0  0  0  0  0  0  0  0  0  0  0  0
   -2.8849   -2.0032    0.0000 H   0  0  0  0  0  0  0  0  0  0  0  0
   -3.4976   -0.3198    0.0000 H   0  0  0  0  0  0  0  0  0  0  0  0
   -3.4976    0.3198    0.0000 H   0  0  0  0  0  0  0  0  0  0  0  0
   -2.8849    2.0032    0.0000 H   0  0  0  0  0  0  0  0  0  0  0  0
   -2.4738    2.4932    0.0000 H   0  0  0  0  0  0  0  0  0  0  0  0
    0.5654    3.5805    0.0000 H   0  0  0  0  0  0  0  0  0  0  0  0
   -2.4100    3.1974    0.0000 H   0  0  0  0  0  0  0  0  0  0  0  0
    0.7493    4.9660    0.0000 H   0  0  0  0  0  0  0  0  0  0  0  0
    0.2833    6.9325    0.0000 H   0  0  0  0  0  0  0  0  0  0  0  0
   -1.9183    7.5916    0.0000 H   0  0  0  0  0  0  0  0  0  0  0  0
   -3.3883    6.2047    0.0000 H   0  0  0  0  0  0  0  0  0  0  0  0
   -4.1988    4.6417    0.0000 H   0  0  0  0  0  0  0  0  0  0  0  0
   -1.7206    2.9910    0.0000 H   0  0  0  0  0  0  0  0  0  0  0  0
   -2.1911    1.9549    0.0000 H   0  0  0  0  0  0  0  0  0  0  0  0
   -4.7799    3.4597    0.0000 H   0  0  0  0  0  0  0  0  0  0  0  0
   -3.0015    0.3919    0.0000 H   0  0  0  0  0  0  0  0  0  0  0  0
   -4.4715   -0.9950    0.0000 H   0  0  0  0  0  0  0  0  0  0  0  0
   -7.8763    0.5599    0.0000 H   0  0  0  0  0  0  0  0  0  0  0  0
   -6.8473   -1.8257    0.0000 H   0  0  0  0  0  0  0  0  0  0  0  0
   -7.1392    1.6306    0.0000 H   0  0  0  0  0  0  0  0  0  0  0  0
    0.2328    3.6522    0.0000 H   0  0  0  0  0  0  0  0  0  0  0  0
    1.4718    3.1889    0.0000 H   0  0  0  0  0  0  0  0  0  0  0  0
    6.9354    1.9167    0.0000 H   0  0  0  0  0  0  0  0  0  0  0  0
    7.8974    2.2118    0.0000 H   0  0  0  0  0  0  0  0  0  0  0  0
    9.7756    1.5034    0.0000 H   0  0  0  0  0  0  0  0  0  0  0  0
   10.5060    0.4074    0.0000 H   0  0  0  0  0  0  0  0  0  0  0  0
   11.3114   -3.6644    0.0000 H   0  0  0  0  0  0  0  0  0  0  0  0
    8.3638   -3.5529    0.0000 H   0  0  0  0  0  0  0  0  0  0  0  0
    9.8828   -4.8350    0.0000 H   0  0  0  0  0  0  0  0  0  0  0  0
   11.5786   -3.0118    0.0000 H   0  0  0  0  0  0  0  0  0  0  0  0
   11.1705   -0.0454    0.0000 H   0  0  0  0  0  0  0  0  0  0  0  0
   12.7196    0.2533    0.0000 H   0  0  0  0  0  0  0  0  0  0  0  0
   14.7175   -0.0512    0.0000 H   0  0  0  0  0  0  0  0  0  0  0  0
   15.5535   -2.1919    0.0000 H   0  0  0  0  0  0  0  0  0  0  0  0
   14.2909   -3.7698    0.0000 H   0  0  0  0  0  0  0  0  0  0  0  0
   12.2458   -3.7104    0.0000 H   0  0  0  0  0  0  0  0  0  0  0  0
    7.7399   -3.9481    0.0000 H   0  0  0  0  0  0  0  0  0  0  0  0
    5.7545   -3.0572    0.0000 H   0  0  0  0  0  0  0  0  0  0  0  0
    5.4510   -1.3495    0.0000 H   0  0  0  0  0  0  0  0  0  0  0  0
  1  2  1  0
  2  3  1  0
  3  4  2  3
  4  5  1  0
  5  6  1  0
  6  7  1  0
  7  8  1  0
  8  9  2  0
  9 10  1  0
 10 11  1  0
 11 12  1  0
 12 13  1  0
 13 14  1  0
 14 15  1  0
 15 16  1  0
 16 17  1  0
 17 18  1  0
 18 19  1  0
 19 20  1  0
 20 21  1  0
 20 22  1  0
 22 23  1  0
 12 24  1  0
  2 25  1  0
 25 26  1  0
 26 27  1  0
 27 28  1  0
 28 29  1  1
 28 30  1  0
 30 31  1  0
 31 32  1  0
 32 33  1  0
 28 34  1  0
 34 35  1  6
 35 36  1  0
 24  5  1  0
 36 25  1  0
 16 14  1  0
 22 19  1  0
 34 27  1  0
 33 31  1  0
 36 34  1  0
  1 37  1  0
  1 38  1  0
  1 39  1  0
  2 40  1  6
  3 41  1  0
  4 42  1  0
  5 43  1  6
  6 44  1  0
  6 45  1  0
  7 46  1  0
  7 47  1  0
  8 48  1  0
  9 49  1  0
 10 50  1  0
 10 51  1  0
 11 52  1  0
 11 53  1  0
 12 54  1  1
 13 55  1  0
 13 56  1  0
 14 57  1  1
 15 58  1  0
 15 59  1  0
 16 60  1  6
 17 61  1  0
 17 62  1  0
 18 63  1  0
 18 64  1  0
 19 65  1  6
 20 66  1  1
 21 67  1  0
 21 68  1  0
 22 69  1  1
 24 70  1  0
 24 71  1  0
 25 72  1  1
 26 73  1  0
 26 74  1  0
 27 75  1  1
 29 76  1  0
 29 77  1  0
 29 78  1  0
 30 79  1  0
 30 80  1  0
 31 81  1  0
 32 82  1  0
 32 83  1  0
 33 84  1  0
 33 85  1  0
 35 86  1  0
 35 87  1  0
 36 88  1  6
M  END
$$$$
