
     RDKit          2D

 29 31  0  0  0  0  0  0  0  0999 V2000
    2.7760    0.0000    0.0000 C   0  0  0  0  0  0  0  0  0  0  0  0
    1.2760    0.0000    0.0000 C   0  0  0  0  0  0  0  0  0  0  0  0
    0.3943    1.2135    0.0000 C   0  0  0  0  0  0  0  0  0  0  0  0
   -1.0323    0.7500    0.0000 C   0  0  0  0  0  0  0  0  0  0  0  0
   -1.0323   -0.7500    0.0000 C   0  0  0  0  0  0  0  0  0  0  0  0
    0.3943   -1.2135    0.0000 C   0  0  0  0  0  0  0  0  0  0  0  0
    1.6933   -1.9635    0.0000 C   0  0  0  0  0  0  0  0  0  0  0  0
    2.9924   -2.7135    0.0000 C   0  0  0  0  0  0  0  0  0  0  0  0
    4.2914   -1.9635    0.0000 O   0  0  0  0  0  0  0  0  0  0  0  0
    4.2914   -3.4635    0.0000 C   0  0  0  0  0  0  0  0  0  0  0  0
    2.9924   -4.2135    0.0000 C   0  0  0  0  0  0  0  0  0  0  0  0
    3.5054   -5.6231    0.0000 C   0  0  0  0  0  0  0  0  0  0  0  0
    2.5412   -6.7721    0.0000 N   0  0  0  0  0  0  0  0  0  0  0  0
    4.9826   -5.8835    0.0000 O   0  0  0  0  0  0  0  0  0  0  0  0
    3.2681   -0.8523    0.0000 H   0  0  0  0  0  0  0  0  0  0  0  0
    3.5260    1.2990    0.0000 H   0  0  0  0  0  0  0  0  0  0  0  0
   -0.2158    2.5838    0.0000 H   0  0  0  0  0  0  0  0  0  0  0  0
    1.6933    1.9635    0.0000 H   0  0  0  0  0  0  0  0  0  0  0  0
   -2.5241    0.5932    0.0000 H   0  0  0  0  0  0  0  0  0  0  0  0
   -1.3442    2.2172    0.0000 H   0  0  0  0  0  0  0  0  0  0  0  0
   -1.3442   -2.2172    0.0000 H   0  0  0  0  0  0  0  0  0  0  0  0
   -2.5241   -0.5932    0.0000 H   0  0  0  0  0  0  0  0  0  0  0  0
   -0.2158   -2.5838    0.0000 H   0  0  0  0  0  0  0  0  0  0  0  0
    0.9433   -3.2626    0.0000 H   0  0  0  0  0  0  0  0  0  0  0  0
    2.3770   -1.2556    0.0000 H   0  0  0  0  0  0  0  0  0  0  0  0
    5.5905   -4.2135    0.0000 H   0  0  0  0  0  0  0  0  0  0  0  0
    1.5152   -4.4740    0.0000 H   0  0  0  0  0  0  0  0  0  0  0  0
    3.0543   -8.1817    0.0000 H   0  0  0  0  0  0  0  0  0  0  0  0
    1.0640   -6.5117    0.0000 H   0  0  0  0  0  0  0  0  0  0  0  0
  1  2  2  3
  2  3  1  0
  3  4  1  0
  4  5  1  0
  5  6  1  0
  6  7  1  0
  7  8  1  0
  8  9  1  0
  9 10  1  0
 10 11  1  0
 11 12  1  0
 12 13  1  0
 12 14  2  0
  6  2  1  0
 10  8  1  0
 11  8  1  0
  1 15  1  0
  1 16  1  0
  3 17  1  0
  3 18  1  0
  4 19  1  0
  4 20  1  0
  5 21  1  0
  5 22  1  0
  6 23  1  0
  7 24  1  0
  7 25  1  0
 10 26  1  0
 11 27  1  0
 13 28  1  0
 13 29  1  0
M  END
$$$$
