
     RDKit          2D

 21 21  0  0  0  0  0  0  0  0999 V2000
    3.7586    3.4472    0.0000 C   0  0  0  0  0  0  0  0  0  0  0  0
    2.7944    2.2981    0.0000 C   0  0  0  0  0  0  0  0  0  0  0  0
    3.9435    1.3340    0.0000 F   0  0  0  0  0  0  0  0  0  0  0  0
    1.8302    1.1491    0.0000 C   0  0  0  0  0  0  0  0  0  0  0  0
    0.8660    0.0000    0.0000 C   0  0  0  0  0  0  0  0  0  0  0  0
    1.8302   -1.1491    0.0000 C   0  0  0  0  0  0  0  0  0  0  0  0
   -0.4330    0.7500    0.0000 C   0  0  0  0  0  0  0  0  0  0  0  0
   -0.4330   -0.7500    0.0000 C   0  0  0  0  0  0  0  0  0  0  0  0
   -0.1294   -2.0654    0.0000 F   0  0  0  0  0  0  0  0  0  0  0  0
    4.7228    4.5963    0.0000 H   0  0  0  0  0  0  0  0  0  0  0  0
    4.9076    2.4830    0.0000 H   0  0  0  0  0  0  0  0  0  0  0  0
    2.6095    4.4114    0.0000 H   0  0  0  0  0  0  0  0  0  0  0  0
    1.6453    3.2623    0.0000 H   0  0  0  0  0  0  0  0  0  0  0  0
    2.8492    0.4874    0.0000 H   0  0  0  0  0  0  0  0  0  0  0  0
    0.9095    2.1364    0.0000 H   0  0  0  0  0  0  0  0  0  0  0  0
    2.7944   -2.2981    0.0000 H   0  0  0  0  0  0  0  0  0  0  0  0
    2.8492   -0.4874    0.0000 H   0  0  0  0  0  0  0  0  0  0  0  0
    0.9095   -2.1364    0.0000 H   0  0  0  0  0  0  0  0  0  0  0  0
   -1.9102    1.0105    0.0000 H   0  0  0  0  0  0  0  0  0  0  0  0
   -0.1294    2.0654    0.0000 H   0  0  0  0  0  0  0  0  0  0  0  0
   -1.9102   -1.0105    0.0000 H   0  0  0  0  0  0  0  0  0  0  0  0
  1  2  1  0
  2  3  1  0
  2  4  1  0
  4  5  1  0
  5  6  1  0
  5  7  1  0
  7  8  1  0
  8  9  1  0
  8  5  1  0
  1 10  1  0
  1 11  1  0
  1 12  1  0
  2 13  1  0
  4 14  1  0
  4 15  1  0
  6 16  1  0
  6 17  1  0
  6 18  1  0
  7 19  1  0
  7 20  1  0
  8 21  1  0
M  END
$$$$
