
     RDKit          2D

 52 55  0  0  0  0  0  0  0  0999 V2000
   -4.2696    1.7652    0.0000 C   0  0  0  0  0  0  0  0  0  0  0  0
   -2.7738    1.8773    0.0000 C   0  0  0  0  0  0  0  0  0  0  0  0
   -1.9288    0.6379    0.0000 C   0  0  0  0  0  0  0  0  0  0  0  0
   -0.4330    0.7500    0.0000 C   0  0  0  0  0  0  0  0  0  0  0  0
    0.8660    0.0000    0.0000 C   0  0  0  0  0  0  0  0  0  0  0  0
    2.2623    0.5480    0.0000 C   0  0  0  0  0  0  0  0  0  0  0  0
    2.7045    1.9814    0.0000 N   0  0  0  0  0  2  0  0  0  0  0  0
    1.8595    3.2207    0.0000 C   0  0  0  0  0  0  0  0  0  0  0  0
    3.2558    3.7687    0.0000 N   0  0  0  0  0  2  0  0  0  0  0  0
    0.3637    3.3328    0.0000 C   0  0  0  0  0  0  0  0  0  0  0  0
    0.8058    4.7662    0.0000 C   0  0  0  0  0  0  0  0  0  0  0  0
    2.2942    4.5797    0.0000 C   0  0  0  0  0  0  0  0  0  0  0  0
    0.7310    6.2643    0.0000 O   0  0  0  0  0  0  0  0  0  0  0  0
   -0.5290    5.4505    0.0000 C   0  0  0  0  0  0  0  0  0  0  0  0
   -1.5493    6.5501    0.0000 C   0  0  0  0  0  0  0  0  0  0  0  0
   -0.4497    7.5703    0.0000 O   0  0  0  0  0  0  0  0  0  0  0  0
   -2.5695    7.6497    0.0000 C   0  0  0  0  0  0  0  0  0  0  0  0
   -3.5898    8.7492    0.0000 C   0  0  0  0  0  0  0  0  0  0  0  0
   -3.6691    6.6294    0.0000 C   0  0  0  0  0  0  0  0  0  0  0  0
   -1.4699    8.6699    0.0000 C   0  0  0  0  0  0  0  0  0  0  0  0
   -0.6566    2.2332    0.0000 Al  0  0  0  0  0  3  0  0  0  0  0  0
   -0.4330   -0.7500    0.0000 C   0  0  0  0  0  0  0  0  0  0  0  0
   -1.1830   -2.0490    0.0000 C   0  0  0  0  0  0  0  0  0  0  0  0
   -5.7654    1.6531    0.0000 H   0  0  0  0  0  0  0  0  0  0  0  0
   -4.3817    3.2610    0.0000 H   0  0  0  0  0  0  0  0  0  0  0  0
   -4.1575    0.2694    0.0000 H   0  0  0  0  0  0  0  0  0  0  0  0
   -2.1230    3.2287    0.0000 H   0  0  0  0  0  0  0  0  0  0  0  0
   -2.7395   -0.6241    0.0000 H   0  0  0  0  0  0  0  0  0  0  0  0
    1.5169   -1.3515    0.0000 H   0  0  0  0  0  0  0  0  0  0  0  0
    2.4859   -0.9352    0.0000 H   0  0  0  0  0  0  0  0  0  0  0  0
    3.7581    0.4359    0.0000 H   0  0  0  0  0  0  0  0  0  0  0  0
    1.9349    4.0143    0.0000 H   0  0  0  0  0  0  0  0  0  0  0  0
    3.4794    5.2520    0.0000 H   0  0  0  0  0  0  0  0  0  0  0  0
   -1.0171    3.9189    0.0000 H   0  0  0  0  0  0  0  0  0  0  0  0
    3.7834    4.7588    0.0000 H   0  0  0  0  0  0  0  0  0  0  0  0
    2.4807    6.0680    0.0000 H   0  0  0  0  0  0  0  0  0  0  0  0
    2.4733    3.0904    0.0000 H   0  0  0  0  0  0  0  0  0  0  0  0
   -1.5737    4.3741    0.0000 H   0  0  0  0  0  0  0  0  0  0  0  0
   -2.5163    5.4034    0.0000 H   0  0  0  0  0  0  0  0  0  0  0  0
   -0.2371    9.0552    0.0000 H   0  0  0  0  0  0  0  0  0  0  0  0
   -4.6100    9.8488    0.0000 H   0  0  0  0  0  0  0  0  0  0  0  0
   -2.6228    9.8959    0.0000 H   0  0  0  0  0  0  0  0  0  0  0  0
   -4.8055    7.8706    0.0000 H   0  0  0  0  0  0  0  0  0  0  0  0
   -4.7687    5.6091    0.0000 H   0  0  0  0  0  0  0  0  0  0  0  0
   -4.8158    7.5964    0.0000 H   0  0  0  0  0  0  0  0  0  0  0  0
   -2.7905    5.4137    0.0000 H   0  0  0  0  0  0  0  0  0  0  0  0
   -0.5029    9.8166    0.0000 H   0  0  0  0  0  0  0  0  0  0  0  0
   -2.3485    9.8857    0.0000 H   0  0  0  0  0  0  0  0  0  0  0  0
   -0.2139    7.8499    0.0000 H   0  0  0  0  0  0  0  0  0  0  0  0
   -1.9330   -3.3481    0.0000 H   0  0  0  0  0  0  0  0  0  0  0  0
   -2.5638   -1.4630    0.0000 H   0  0  0  0  0  0  0  0  0  0  0  0
    0.1160   -2.7990    0.0000 H   0  0  0  0  0  0  0  0  0  0  0  0
  1  2  1  0
  2  3  2  3
  4  3  1  6
  4  5  1  0
  5  6  1  0
  6  7  1  0
  7  8  1  0
  8  9  1  0
  8 10  1  0
 10 11  1  0
 11 12  1  1
 11 13  1  0
 13 14  1  0
 14 15  1  0
 15 16  1  0
 15 17  1  0
 17 18  1  0
 17 19  1  0
 17 20  1  0
 10 21  1  0
 21 22  1  0
 22 23  1  1
 21  4  1  0
 22  4  1  0
 22  5  1  0
 14 11  1  0
  1 24  1  0
  1 25  1  0
  1 26  1  0
  2 27  1  0
  3 28  1  0
  5 29  1  1
  6 30  1  0
  6 31  1  0
  8 32  1  6
  9 33  1  0
 10 34  1  1
 12 35  1  0
 12 36  1  0
 12 37  1  0
 14 38  1  1
 15 39  1  6
 16 40  1  0
 18 41  1  0
 18 42  1  0
 18 43  1  0
 19 44  1  0
 19 45  1  0
 19 46  1  0
 20 47  1  0
 20 48  1  0
 20 49  1  0
 23 50  1  0
 23 51  1  0
 23 52  1  0
M  RAD  2   7   2   9   2
M  END
$$$$
