
     RDKit          2D

 83 85  0  0  0  0  0  0  0  0999 V2000
    7.6312   -0.3331    0.0000 C   0  0  0  0  0  0  0  0  0  0  0  0
    6.6275    0.7817    0.0000 C   0  0  0  0  0  0  0  0  0  0  0  0
    5.6238    1.8964    0.0000 C   0  0  0  0  0  0  0  0  0  0  0  0
    4.6201    3.0111    0.0000 C   0  0  0  0  0  0  0  0  0  0  0  0
    3.6164    4.1258    0.0000 C   0  0  0  0  0  0  0  0  0  0  0  0
    3.5054    2.0074    0.0000 C   0  0  0  0  0  0  0  0  0  0  0  0
    2.3907    1.0037    0.0000 C   0  0  0  0  0  0  0  0  0  0  0  0
    1.2760    0.0000    0.0000 C   0  0  0  0  0  0  0  0  0  0  0  0
    0.3943    1.2135    0.0000 C   0  0  0  0  0  0  0  0  0  0  0  0
   -1.0323    0.7500    0.0000 C   0  0  0  0  0  0  0  0  0  0  0  0
   -2.5241    0.5932    0.0000 C   0  0  0  0  0  0  0  0  0  0  0  0
   -4.0159    0.4364    0.0000 C   0  0  0  0  0  0  0  0  0  0  0  0
   -5.5076    0.2796    0.0000 C   0  0  0  0  0  0  0  0  0  0  0  0
   -4.1726    1.9282    0.0000 C   0  0  0  0  0  0  0  0  0  0  0  0
   -5.6644    1.7714    0.0000 O   0  0  0  0  0  0  0  0  0  0  0  0
   -4.3294    3.4200    0.0000 C   0  0  0  0  0  0  0  0  0  0  0  0
   -4.4862    4.9118    0.0000 C   0  0  0  0  0  0  0  0  0  0  0  0
   -2.9944    5.0686    0.0000 O   0  0  0  0  0  0  0  0  0  0  0  0
   -4.6430    6.4035    0.0000 C   0  0  0  0  0  0  0  0  0  0  0  0
   -6.1348    6.2468    0.0000 O   0  0  0  0  0  0  0  0  0  0  0  0
   -4.7998    7.8953    0.0000 C   0  0  0  0  0  0  0  0  0  0  0  0
   -6.2962    8.0000    0.0000 C   0  0  0  0  0  0  0  0  0  0  0  0
   -6.9537    9.3482    0.0000 C   0  0  0  0  0  0  0  0  0  0  0  0
   -8.3956    8.9347    0.0000 C   0  0  0  0  0  0  0  0  0  0  0  0
   -7.1105   10.8399    0.0000 C   0  0  0  0  0  0  0  0  0  0  0  0
   -7.2673   12.3317    0.0000 C   0  0  0  0  0  0  0  0  0  0  0  0
   -5.4574    9.2435    0.0000 C   0  0  0  0  0  0  0  0  0  0  0  0
   -4.6186   10.4871    0.0000 C   0  0  0  0  0  0  0  0  0  0  0  0
   -1.0323   -0.7500    0.0000 C   0  0  0  0  0  0  0  0  0  0  0  0
    0.3943   -1.2135    0.0000 C   0  0  0  0  0  0  0  0  0  0  0  0
    1.6933   -1.9635    0.0000 C   0  0  0  0  0  0  0  0  0  0  0  0
    8.6349   -1.4478    0.0000 H   0  0  0  0  0  0  0  0  0  0  0  0
    6.5165   -1.3368    0.0000 H   0  0  0  0  0  0  0  0  0  0  0  0
    8.7459    0.6706    0.0000 H   0  0  0  0  0  0  0  0  0  0  0  0
    5.5128   -0.2220    0.0000 H   0  0  0  0  0  0  0  0  0  0  0  0
    7.7422    1.7853    0.0000 H   0  0  0  0  0  0  0  0  0  0  0  0
    5.0427    1.2279    0.0000 H   0  0  0  0  0  0  0  0  0  0  0  0
    6.7385    2.9001    0.0000 H   0  0  0  0  0  0  0  0  0  0  0  0
    5.7348    4.0148    0.0000 H   0  0  0  0  0  0  0  0  0  0  0  0
    2.6127    5.2405    0.0000 H   0  0  0  0  0  0  0  0  0  0  0  0
    4.7311    5.1295    0.0000 H   0  0  0  0  0  0  0  0  0  0  0  0
    2.8909    3.6178    0.0000 H   0  0  0  0  0  0  0  0  0  0  0  0
    2.8369    2.5885    0.0000 H   0  0  0  0  0  0  0  0  0  0  0  0
    4.0134    1.2818    0.0000 H   0  0  0  0  0  0  0  0  0  0  0  0
    1.8827    1.7293    0.0000 H   0  0  0  0  0  0  0  0  0  0  0  0
    3.3944   -0.1110    0.0000 H   0  0  0  0  0  0  0  0  0  0  0  0
    2.5047   -0.8603    0.0000 H   0  0  0  0  0  0  0  0  0  0  0  0
   -0.2158    2.5838    0.0000 H   0  0  0  0  0  0  0  0  0  0  0  0
    1.1017    1.7466    0.0000 H   0  0  0  0  0  0  0  0  0  0  0  0
   -1.3442    2.2172    0.0000 H   0  0  0  0  0  0  0  0  0  0  0  0
   -2.4979    2.0930    0.0000 H   0  0  0  0  0  0  0  0  0  0  0  0
   -2.5503   -0.9066    0.0000 H   0  0  0  0  0  0  0  0  0  0  0  0
   -3.8591   -1.0554    0.0000 H   0  0  0  0  0  0  0  0  0  0  0  0
   -6.9994    0.1228    0.0000 H   0  0  0  0  0  0  0  0  0  0  0  0
   -5.3508   -1.2122    0.0000 H   0  0  0  0  0  0  0  0  0  0  0  0
   -6.0207    1.6891    0.0000 H   0  0  0  0  0  0  0  0  0  0  0  0
   -2.7111    2.2657    0.0000 H   0  0  0  0  0  0  0  0  0  0  0  0
   -6.6875    2.8684    0.0000 H   0  0  0  0  0  0  0  0  0  0  0  0
   -5.8292    3.4462    0.0000 H   0  0  0  0  0  0  0  0  0  0  0  0
   -2.8377    3.5768    0.0000 H   0  0  0  0  0  0  0  0  0  0  0  0
   -5.9780    4.7550    0.0000 H   0  0  0  0  0  0  0  0  0  0  0  0
   -2.2219    6.3543    0.0000 H   0  0  0  0  0  0  0  0  0  0  0  0
   -3.1815    6.7410    0.0000 H   0  0  0  0  0  0  0  0  0  0  0  0
   -7.1578    7.3438    0.0000 H   0  0  0  0  0  0  0  0  0  0  0  0
   -3.3579    8.3088    0.0000 H   0  0  0  0  0  0  0  0  0  0  0  0
   -7.2803    6.8679    0.0000 H   0  0  0  0  0  0  0  0  0  0  0  0
   -9.8375    8.5212    0.0000 H   0  0  0  0  0  0  0  0  0  0  0  0
   -8.9817   10.3154    0.0000 H   0  0  0  0  0  0  0  0  0  0  0  0
   -7.9822    7.4928    0.0000 H   0  0  0  0  0  0  0  0  0  0  0  0
   -5.6490   11.1774    0.0000 H   0  0  0  0  0  0  0  0  0  0  0  0
   -8.6103   10.8662    0.0000 H   0  0  0  0  0  0  0  0  0  0  0  0
   -7.4241   13.8235    0.0000 H   0  0  0  0  0  0  0  0  0  0  0  0
   -8.7591   12.1749    0.0000 H   0  0  0  0  0  0  0  0  0  0  0  0
   -5.7755   12.4885    0.0000 H   0  0  0  0  0  0  0  0  0  0  0  0
   -3.7798   11.7306    0.0000 H   0  0  0  0  0  0  0  0  0  0  0  0
   -3.3750    9.6483    0.0000 H   0  0  0  0  0  0  0  0  0  0  0  0
   -5.7506   11.4712    0.0000 H   0  0  0  0  0  0  0  0  0  0  0  0
   -1.3442   -2.2172    0.0000 H   0  0  0  0  0  0  0  0  0  0  0  0
   -2.5321   -0.7762    0.0000 H   0  0  0  0  0  0  0  0  0  0  0  0
   -0.2158   -2.5838    0.0000 H   0  0  0  0  0  0  0  0  0  0  0  0
    2.9924   -2.7135    0.0000 H   0  0  0  0  0  0  0  0  0  0  0  0
    0.9433   -3.2626    0.0000 H   0  0  0  0  0  0  0  0  0  0  0  0
    2.5961   -0.7656    0.0000 H   0  0  0  0  0  0  0  0  0  0  0  0
  1  2  1  0
  2  3  1  0
  3  4  1  0
  4  5  1  0
  4  6  1  0
  6  7  1  0
  7  8  1  0
  8  9  1  0
  9 10  1  0
 10 11  1  0
 11 12  1  0
 12 13  1  0
 12 14  1  0
 14 15  1  0
 14 16  1  0
 16 17  1  0
 17 18  1  0
 17 19  1  0
 19 20  1  0
 19 21  1  0
 21 22  1  0
 22 23  1  0
 23 24  1  0
 23 25  1  0
 25 26  1  0
 23 27  1  0
 27 28  1  0
 10 29  1  0
 29 30  1  0
 30 31  1  0
 30  8  1  0
 27 21  1  0
 27 22  1  0
  1 32  1  0
  1 33  1  0
  1 34  1  0
  2 35  1  0
  2 36  1  0
  3 37  1  0
  3 38  1  0
  4 39  1  0
  5 40  1  0
  5 41  1  0
  5 42  1  0
  6 43  1  0
  6 44  1  0
  7 45  1  0
  7 46  1  0
  8 47  1  0
  9 48  1  0
  9 49  1  0
 10 50  1  0
 11 51  1  0
 11 52  1  0
 12 53  1  0
 13 54  1  0
 13 55  1  0
 13 56  1  0
 14 57  1  0
 15 58  1  0
 16 59  1  0
 16 60  1  0
 17 61  1  0
 18 62  1  0
 19 63  1  0
 20 64  1  0
 21 65  1  0
 22 66  1  0
 24 67  1  0
 24 68  1  0
 24 69  1  0
 25 70  1  0
 25 71  1  0
 26 72  1  0
 26 73  1  0
 26 74  1  0
 28 75  1  0
 28 76  1  0
 28 77  1  0
 29 78  1  0
 29 79  1  0
 30 80  1  0
 31 81  1  0
 31 82  1  0
 31 83  1  0
M  END
$$$$
