
     RDKit          3D

 44 51  0  0  0  0  0  0  0  0999 V2000
   30.2992  -19.6555  -10.5854 Br  0  0  0  0  0  0  0  0  0  0  0  0
   27.8953  -20.9754   -6.5308 C   0  0  0  0  0  0  0  0  0  0  0  0
   27.7471  -19.0103   -8.0232 C   0  0  0  0  0  0  0  0  0  0  0  0
   28.2627  -20.1362   -5.4388 C   0  0  0  0  0  0  0  0  0  0  0  0
   29.0824  -21.9372   -8.3966 C   0  0  0  0  0  0  0  0  0  0  0  0
   26.7241  -20.3684   -7.4399 C   0  0  0  0  0  0  0  0  0  0  0  0
   30.6077  -19.7895   -7.8079 C   0  0  0  0  0  0  0  0  0  0  0  0
   32.0775  -19.3441   -8.2456 C   0  0  0  0  0  0  0  0  0  0  0  0
   27.4849  -17.5215   -1.9313 C   0  0  0  0  0  0  0  0  0  0  0  0
   29.4004  -19.1269   -3.9479 C   0  0  0  0  0  0  0  0  0  0  0  0
   28.0020  -18.7163   -4.1950 C   0  0  0  0  0  0  0  0  0  0  0  0
   29.2879  -19.9860   -8.5749 C   0  0  0  0  0  0  0  0  0  0  0  0
   30.4293  -21.1508   -6.9388 C   0  0  0  0  0  0  0  0  0  0  0  0
   20.8708  -13.0404    3.4149 C   0  0  0  0  0  0  0  0  0  0  0  0
   19.5093  -12.1051    2.7839 C   0  0  0  0  0  0  0  0  0  0  0  0
   22.1947  -12.2482    2.4514 C   0  0  0  0  0  0  0  0  0  0  0  0
   27.6605  -19.2712   -3.1221 C   0  0  0  0  0  0  0  0  0  0  0  0
   26.1174  -18.8337   -2.6212 C   0  0  0  0  0  0  0  0  0  0  0  0
   18.8509  -11.2242    3.6675 O   0  0  0  0  0  0  0  0  0  0  0  0
   29.4265  -18.9549   -0.2101 C   0  0  0  0  0  0  0  0  0  0  0  0
   22.3671   -9.4438    3.7407 C   0  0  0  0  0  0  0  0  0  0  0  0
   22.7963  -10.3031    5.0346 C   0  0  0  0  0  0  0  0  0  0  0  0
   23.4021  -13.1265    0.9814 C   0  0  0  0  0  0  0  0  0  0  0  0
   22.8573  -13.6474   -0.6542 C   0  0  0  0  0  0  0  0  0  0  0  0
   19.7277  -10.6854    2.7177 C   0  0  0  0  0  0  0  0  0  0  0  0
   27.5971  -18.8271   -1.5101 C   0  0  0  0  0  0  0  0  0  0  0  0
   22.3490  -14.4976    2.2207 C   0  0  0  0  0  0  0  0  0  0  0  0
   21.4044  -10.6067    2.7042 C   0  0  0  0  0  0  0  0  0  0  0  0
   21.9316  -11.0047    6.0623 C   0  0  0  0  0  0  0  0  0  0  0  0
   25.1812  -13.8603    1.4889 C   0  0  0  0  0  0  0  0  0  0  0  0
   21.3222  -11.4874   -0.2175 C   0  0  0  0  0  0  0  0  0  0  0  0
   23.1911  -15.7750   -0.7593 C   0  0  0  0  0  0  0  0  0  0  0  0
   26.8945  -14.9531    1.7473 C   0  0  0  0  0  0  0  0  0  0  0  0
   24.1723  -10.5140    5.1241 C   0  0  0  0  0  0  0  0  0  0  0  0
   21.3509  -14.5393    3.4499 C   0  0  0  0  0  0  0  0  0  0  0  0
   22.7190  -16.5176   -3.0529 C   0  0  0  0  0  0  0  0  0  0  0  0
   27.0456  -16.2065   -3.7109 C   0  0  0  0  0  0  0  0  0  0  0  0
   24.4026  -14.9612   -4.1839 C   0  0  0  0  0  0  0  0  0  0  0  0
   24.7834  -16.5689   -2.1208 C   0  0  0  0  0  0  0  0  0  0  0  0
   25.6745  -18.9955   -5.4569 C   0  0  0  0  0  0  0  0  0  0  0  0
   23.7991  -17.9367   -4.5132 C   0  0  0  0  0  0  0  0  0  0  0  0
   22.0044  -13.4178    0.6037 C   0  0  0  0  0  0  0  0  0  0  0  0
   24.7586  -17.1870   -4.1711 C   0  0  0  0  0  0  0  0  0  0  0  0
   24.1121  -13.1447   -4.9923 C   0  0  0  0  0  0  0  0  0  0  0  0
  4  2  2  3
  5  2  1  0
  6  2  1  0
  6  3  1  0
  8  7  1  0
 11  4  1  0
 11  9  1  0
 11 10  1  0
 12  1  1  0
 12  3  1  0
 12  5  1  0
 12  7  1  0
 13  5  1  0
 13  7  1  0
 15 14  1  0
 16 14  1  0
 17 10  1  0
 18 17  1  0
 19 15  1  0
 22 21  1  0
 23 16  1  0
 24 23  1  0
 25 15  1  0
 25 19  1  0
 26  9  1  0
 26 17  1  0
 26 18  1  0
 26 20  1  0
 28 16  1  0
 28 21  1  0
 28 25  1  0
 29 22  1  0
 30 23  1  0
 32 24  1  0
 33 30  1  0
 34 22  2  0
 35 14  1  0
 35 27  1  0
 39 32  1  0
 39 36  1  0
 39 37  1  0
 41 36  1  0
 41 40  1  0
 42 23  1  0
 42 24  1  0
 42 27  1  0
 42 31  1  0
 43 18  1  0
 43 38  1  0
 43 41  1  0
 44 38  1  0
M  END
$$$$
