
     RDKit          2D

107113  0  0  0  0  0  0  0  0999 V2000
    3.8103    9.1148    0.0000 C   0  0  0  0  0  0  0  0  0  0  0  0
    4.1563    7.6552    0.0000 C   0  0  0  0  0  0  0  0  0  0  0  0
    3.0652    6.6259    0.0000 C   0  0  0  0  0  0  0  0  0  0  0  0
    2.0358    7.7169    0.0000 C   0  0  0  0  0  0  0  0  0  0  0  0
    1.9741    5.5965    0.0000 C   0  0  0  0  0  0  0  0  0  0  0  0
    0.8831    4.5671    0.0000 C   0  0  0  0  0  0  0  0  0  0  0  0
    1.9124    3.4761    0.0000 C   0  0  0  0  0  0  0  0  0  0  0  0
    2.9418    2.3850    0.0000 C   0  0  0  0  0  0  0  0  0  0  0  0
   -0.2080    3.5378    0.0000 C   0  0  0  0  0  0  0  0  0  0  0  0
   -1.2990    2.5084    0.0000 C   0  0  0  0  0  0  0  0  0  0  0  0
   -2.7762    2.2479    0.0000 C   0  0  0  0  0  0  0  0  0  0  0  0
   -3.7404    1.0989    0.0000 C   0  0  0  0  0  0  0  0  0  0  0  0
   -3.7404   -0.4011    0.0000 C   0  0  0  0  0  0  0  0  0  0  0  0
   -2.7762   -1.5502    0.0000 C   0  0  0  0  0  0  0  0  0  0  0  0
   -1.2990   -1.8107    0.0000 C   0  0  0  0  0  0  0  0  0  0  0  0
   -0.0000   -1.0607    0.0000 C   0  0  0  0  0  0  0  0  0  0  0  0
    1.0607    0.0000    0.0000 C   0  0  0  0  0  0  0  0  0  0  0  0
    0.0000    1.0607    0.0000 C   0  0  0  0  0  0  0  0  0  0  0  0
   -1.0607    0.0000    0.0000 C   0  0  0  0  0  0  0  0  0  0  0  0
   -2.1213    1.0607    0.0000 O   0  0  0  0  0  0  0  0  0  0  0  0
   -2.1213   -1.0607    0.0000 C   0  0  0  0  0  0  0  0  0  0  0  0
   -3.1820   -2.1213    0.0000 C   0  0  0  0  0  0  0  0  0  0  0  0
   -4.2426   -3.1820    0.0000 C   0  0  0  0  0  0  0  0  0  0  0  0
   -3.9658   -2.4639    0.0000 C   0  0  0  0  0  0  0  0  0  0  0  0
   -4.6216   -1.6585    0.0000 C   0  0  0  0  0  0  0  0  0  0  0  0
   -5.5065   -0.4466    0.0000 O   0  0  0  0  0  0  0  0  0  0  0  0
   -6.1717    0.4080    0.0000 C   0  0  0  0  0  0  0  0  0  0  0  0
   -6.3668   -1.0792    0.0000 C   0  0  0  0  0  0  0  0  0  0  0  0
   -7.7805   -1.5806    0.0000 C   0  0  0  0  0  0  0  0  0  0  0  0
   -7.7405   -3.0801    0.0000 C   0  0  0  0  0  0  0  0  0  0  0  0
   -9.2360   -2.9631    0.0000 C   0  0  0  0  0  0  0  0  0  0  0  0
   -8.0132   -4.5551    0.0000 C   0  0  0  0  0  0  0  0  0  0  0  0
   -8.2858   -6.0301    0.0000 C   0  0  0  0  0  0  0  0  0  0  0  0
   -6.3021   -3.5054    0.0000 C   0  0  0  0  0  0  0  0  0  0  0  0
   -5.4531   -2.2688    0.0000 C   0  0  0  0  0  0  0  0  0  0  0  0
   -5.1670    1.5624    0.0000 C   0  0  0  0  0  0  0  0  0  0  0  0
   -4.8890    0.8768    0.0000 C   0  0  0  0  0  0  0  0  0  0  0  0
   -7.1634   -0.6548    0.0000 O   0  0  0  0  0  0  0  0  0  0  0  0
   -7.1634    1.3526    0.0000 C   0  0  0  0  0  0  0  0  0  0  0  0
   -8.2781    2.3563    0.0000 C   0  0  0  0  0  0  0  0  0  0  0  0
   -8.9823    3.6807    0.0000 C   0  0  0  0  0  0  0  0  0  0  0  0
   -7.4832    3.6283    0.0000 Si  0  0  0  0  0  4  0  0  0  0  0  0
   -4.3066    0.0751    0.0000 C   0  0  0  0  0  0  0  0  0  0  0  0
   -4.6431   -0.7743    0.0000 F   0  0  0  0  0  0  0  0  0  0  0  0
    4.9014   10.1442    0.0000 H   0  0  0  0  0  0  0  0  0  0  0  0
    2.5171    9.5020    0.0000 H   0  0  0  0  0  0  0  0  0  0  0  0
    5.5932    7.2250    0.0000 H   0  0  0  0  0  0  0  0  0  0  0  0
    4.0946    5.5348    0.0000 H   0  0  0  0  0  0  0  0  0  0  0  0
    2.7644    8.8534    0.0000 H   0  0  0  0  0  0  0  0  0  0  0  0
    0.8274    6.8282    0.0000 H   0  0  0  0  0  0  0  0  0  0  0  0
    1.0065    8.8080    0.0000 H   0  0  0  0  0  0  0  0  0  0  0  0
    0.8195    6.5540    0.0000 H   0  0  0  0  0  0  0  0  0  0  0  0
    3.1288    4.6391    0.0000 H   0  0  0  0  0  0  0  0  0  0  0  0
   -0.1463    5.6582    0.0000 H   0  0  0  0  0  0  0  0  0  0  0  0
    3.1208    4.3648    0.0000 H   0  0  0  0  0  0  0  0  0  0  0  0
    0.8214    2.4467    0.0000 H   0  0  0  0  0  0  0  0  0  0  0  0
    4.0329    3.4144    0.0000 H   0  0  0  0  0  0  0  0  0  0  0  0
    1.9844    1.2303    0.0000 H   0  0  0  0  0  0  0  0  0  0  0  0
    3.9712    1.2940    0.0000 H   0  0  0  0  0  0  0  0  0  0  0  0
   -1.2373    4.6288    0.0000 H   0  0  0  0  0  0  0  0  0  0  0  0
    0.5268    2.2301    0.0000 H   0  0  0  0  0  0  0  0  0  0  0  0
   -1.9722    3.8489    0.0000 H   0  0  0  0  0  0  0  0  0  0  0  0
   -3.5262    3.5470    0.0000 H   0  0  0  0  0  0  0  0  0  0  0  0
   -4.4905   -1.7001    0.0000 H   0  0  0  0  0  0  0  0  0  0  0  0
   -2.8284   -3.0493    0.0000 H   0  0  0  0  0  0  0  0  0  0  0  0
   -0.3416   -2.9653    0.0000 H   0  0  0  0  0  0  0  0  0  0  0  0
   -1.8038   -3.2232    0.0000 H   0  0  0  0  0  0  0  0  0  0  0  0
    0.1828   -2.5495    0.0000 H   0  0  0  0  0  0  0  0  0  0  0  0
    2.2427    0.9235    0.0000 H   0  0  0  0  0  0  0  0  0  0  0  0
    2.1213   -1.0607    0.0000 H   0  0  0  0  0  0  0  0  0  0  0  0
   -0.3630    2.5161    0.0000 H   0  0  0  0  0  0  0  0  0  0  0  0
   -2.0952    2.5604    0.0000 H   0  0  0  0  0  0  0  0  0  0  0  0
   -2.8938    0.2251    0.0000 H   0  0  0  0  0  0  0  0  0  0  0  0
   -1.3488   -2.3465    0.0000 H   0  0  0  0  0  0  0  0  0  0  0  0
   -2.2585   -3.3034    0.0000 H   0  0  0  0  0  0  0  0  0  0  0  0
   -4.3640   -1.1979    0.0000 H   0  0  0  0  0  0  0  0  0  0  0  0
   -3.3192   -4.3640    0.0000 H   0  0  0  0  0  0  0  0  0  0  0  0
   -5.7199   -2.9217    0.0000 H   0  0  0  0  0  0  0  0  0  0  0  0
   -4.8526   -4.5523    0.0000 H   0  0  0  0  0  0  0  0  0  0  0  0
   -3.4032   -3.8544    0.0000 H   0  0  0  0  0  0  0  0  0  0  0  0
   -7.2898   -2.5185    0.0000 H   0  0  0  0  0  0  0  0  0  0  0  0
   -5.5574   -3.6424    0.0000 H   0  0  0  0  0  0  0  0  0  0  0  0
   -7.6139    0.8207    0.0000 H   0  0  0  0  0  0  0  0  0  0  0  0
   -7.7266   -0.4460    0.0000 H   0  0  0  0  0  0  0  0  0  0  0  0
   -8.6308   -0.3449    0.0000 H   0  0  0  0  0  0  0  0  0  0  0  0
   -9.2805   -1.5944    0.0000 H   0  0  0  0  0  0  0  0  0  0  0  0
   -9.5344   -4.4332    0.0000 H   0  0  0  0  0  0  0  0  0  0  0  0
   -9.3022   -1.4646    0.0000 H   0  0  0  0  0  0  0  0  0  0  0  0
  -10.7314   -2.8462    0.0000 H   0  0  0  0  0  0  0  0  0  0  0  0
   -9.5104   -4.4643    0.0000 H   0  0  0  0  0  0  0  0  0  0  0  0
   -6.5824   -5.0055    0.0000 H   0  0  0  0  0  0  0  0  0  0  0  0
   -6.8108   -6.3028    0.0000 H   0  0  0  0  0  0  0  0  0  0  0  0
   -9.7608   -5.7575    0.0000 H   0  0  0  0  0  0  0  0  0  0  0  0
   -8.5585   -7.5051    0.0000 H   0  0  0  0  0  0  0  0  0  0  0  0
   -6.7022   -4.9511    0.0000 H   0  0  0  0  0  0  0  0  0  0  0  0
   -5.3275   -4.6457    0.0000 H   0  0  0  0  0  0  0  0  0  0  0  0
   -5.0139   -3.7031    0.0000 H   0  0  0  0  0  0  0  0  0  0  0  0
   -5.2716    3.0588    0.0000 H   0  0  0  0  0  0  0  0  0  0  0  0
   -8.5900   -0.1913    0.0000 H   0  0  0  0  0  0  0  0  0  0  0  0
   -8.5000    0.6717    0.0000 H   0  0  0  0  0  0  0  0  0  0  0  0
   -6.1597    2.4673    0.0000 H   0  0  0  0  0  0  0  0  0  0  0  0
   -9.4601    1.4328    0.0000 H   0  0  0  0  0  0  0  0  0  0  0  0
  -10.4089    3.2172    0.0000 H   0  0  0  0  0  0  0  0  0  0  0  0
   -9.1911    5.1661    0.0000 H   0  0  0  0  0  0  0  0  0  0  0  0
   -7.1714    5.0956    0.0000 H   0  0  0  0  0  0  0  0  0  0  0  0
   -5.9978    3.4197    0.0000 H   0  0  0  0  0  0  0  0  0  0  0  0
   -5.9618   -2.1368    0.0000 H   0  0  0  0  0  0  0  0  0  0  0  0
  1  2  2  0
  2  3  1  0
  3  4  1  0
  3  5  1  0
  5  6  1  0
  6  7  1  0
  7  8  1  0
  6  9  1  0
  9 10  1  0
 10 11  1  0
 11 12  2  0
 12 13  1  0
 13 14  1  0
 14 15  1  0
 15 16  1  0
 16 17  1  0
 17 18  1  0
 18 19  1  0
 19 20  1  0
 19 21  1  0
 21 22  1  0
 22 23  1  0
 14 24  1  0
 24 25  1  0
 25 26  1  0
 26 27  1  0
 27 28  1  0
 28 29  1  0
 29 30  1  0
 30 31  1  0
 30 32  1  0
 32 33  1  0
 30 34  1  0
 34 35  1  0
 27 36  1  0
 36 37  1  0
 37 38  1  0
 37 39  1  0
 39 40  1  0
 40 41  1  0
 41 42  1  0
 37 43  1  0
 43 44  1  0
 18 10  1  0
 35 24  1  0
 42 40  1  0
 36 12  1  0
 43 13  1  0
 19 16  1  0
 35 28  1  0
  1 45  1  0
  1 46  1  0
  2 47  1  0
  3 48  1  0
  4 49  1  0
  4 50  1  0
  4 51  1  0
  5 52  1  0
  5 53  1  0
  6 54  1  0
  7 55  1  0
  7 56  1  0
  8 57  1  0
  8 58  1  0
  8 59  1  0
  9 60  1  0
  9 61  1  0
 10 62  1  0
 11 63  1  0
 13 64  1  0
 14 65  1  0
 15 66  1  0
 15 67  1  0
 16 68  1  0
 17 69  1  0
 17 70  1  0
 18 71  1  0
 20 72  1  0
 21 73  1  0
 21 74  1  0
 22 75  1  0
 22 76  1  0
 23 77  1  0
 23 78  1  0
 23 79  1  0
 24 80  1  0
 25 81  1  0
 25 82  1  0
 27 83  1  0
 28 84  1  0
 29 85  1  0
 29 86  1  0
 31 87  1  0
 31 88  1  0
 31 89  1  0
 32 90  1  0
 32 91  1  0
 33 92  1  0
 33 93  1  0
 33 94  1  0
 34 95  1  0
 34 96  1  0
 35 97  1  0
 36 98  1  0
 38 99  1  0
 39100  1  0
 39101  1  0
 40102  1  0
 41103  1  0
 41104  1  0
 42105  1  0
 42106  1  0
 43107  1  0
M  END
$$$$
