
     RDKit          2D

 82 89  0  0  0  0  0  0  0  0999 V2000
   -9.8507    1.4724    0.0000 C   0  0  0  0  0  0  0  0  0  0  0  0
   -8.3883    1.8062    0.0000 C   0  0  0  0  0  0  0  0  0  0  0  0
   -7.3680    0.7066    0.0000 C   0  0  0  0  0  0  0  0  0  0  0  0
   -6.3478   -0.3929    0.0000 C   0  0  0  0  0  0  0  0  0  0  0  0
   -5.3275   -1.4925    0.0000 C   0  0  0  0  0  0  0  0  0  0  0  0
   -4.3073   -2.5921    0.0000 C   0  0  0  0  0  0  0  0  0  0  0  0
   -4.2279   -0.4722    0.0000 C   0  0  0  0  0  0  0  0  0  0  0  0
   -3.1284    0.5480    0.0000 N   0  0  0  0  0  0  0  0  0  0  0  0
   -3.5705    1.9814    0.0000 Se  0  0  0  0  0  2  0  0  0  0  0  0
   -2.7255    3.2207    0.0000 C   0  0  0  0  0  0  0  0  0  0  0  0
   -2.3373    4.6696    0.0000 C   0  0  0  0  0  0  0  0  0  0  0  0
   -3.7862    5.0578    0.0000 C   0  0  0  0  0  0  0  0  0  0  0  0
   -4.1744    3.6090    0.0000 C   0  0  0  0  0  0  0  0  0  0  0  0
   -4.5626    2.1601    0.0000 C   0  0  0  0  0  0  0  0  0  0  0  0
   -4.9509    0.7112    0.0000 C   0  0  0  0  0  0  0  0  0  0  0  0
   -1.2297    3.3328    0.0000 C   0  0  0  0  0  0  0  0  0  0  0  0
   -0.2094    2.2332    0.0000 C   0  0  0  0  0  0  0  0  0  0  0  0
   -0.4330    0.7500    0.0000 C   0  0  0  0  0  0  0  0  0  0  0  0
    0.8660    0.0000    0.0000 C   0  0  0  0  0  0  0  0  0  0  0  0
    1.8302    1.1491    0.0000 C   0  0  0  0  0  0  0  0  0  0  0  0
    2.7944    2.2981    0.0000 C   0  0  0  0  0  0  0  0  0  0  0  0
    3.7586    3.4472    0.0000 C   0  0  0  0  0  0  0  0  0  0  0  0
    4.1287    4.9008    0.0000 C   0  0  0  0  0  0  0  0  0  0  0  0
    5.4960    5.5177    0.0000 C   0  0  0  0  0  0  0  0  0  0  0  0
    5.9784    4.8017    0.0000 C   0  0  0  0  0  0  0  0  0  0  0  0
    6.5290    4.0072    0.0000 C   0  0  0  0  0  0  0  0  0  0  0  0
    6.3302    3.0613    0.0000 C   0  0  0  0  0  0  0  0  0  0  0  0
    6.1638    2.2141    0.0000 C   0  0  0  0  0  0  0  0  0  0  0  0
    4.6643    2.2515    0.0000 C   0  0  0  0  0  0  0  0  0  0  0  0
    7.2112    3.2879    0.0000 C   0  0  0  0  0  0  0  0  0  0  0  0
    6.8049    4.7318    0.0000 C   0  0  0  0  0  0  0  0  0  0  0  0
    5.7575    3.6580    0.0000 C   0  0  0  0  0  0  0  0  0  0  0  0
   -0.4330   -0.7500    0.0000 N   0  0  0  0  0  0  0  0  0  0  0  0
   -1.7321    0.0000    0.0000 C   0  0  0  0  0  0  0  0  0  0  0  0
  -10.8709    2.5720    0.0000 H   0  0  0  0  0  0  0  0  0  0  0  0
  -10.2928    0.0391    0.0000 H   0  0  0  0  0  0  0  0  0  0  0  0
   -7.9462    3.2396    0.0000 H   0  0  0  0  0  0  0  0  0  0  0  0
   -6.5480    1.9627    0.0000 H   0  0  0  0  0  0  0  0  0  0  0  0
   -8.4676   -0.3136    0.0000 H   0  0  0  0  0  0  0  0  0  0  0  0
   -6.9939   -0.8599    0.0000 H   0  0  0  0  0  0  0  0  0  0  0  0
   -6.8617   -1.0023    0.0000 H   0  0  0  0  0  0  0  0  0  0  0  0
   -6.4271   -2.5128    0.0000 H   0  0  0  0  0  0  0  0  0  0  0  0
   -3.2870   -3.6917    0.0000 H   0  0  0  0  0  0  0  0  0  0  0  0
   -5.4068   -3.6123    0.0000 H   0  0  0  0  0  0  0  0  0  0  0  0
   -2.9935   -1.8682    0.0000 H   0  0  0  0  0  0  0  0  0  0  0  0
   -3.2077   -1.5718    0.0000 H   0  0  0  0  0  0  0  0  0  0  0  0
   -5.4839    0.3478    0.0000 H   0  0  0  0  0  0  0  0  0  0  0  0
   -1.9491    6.1185    0.0000 H   0  0  0  0  0  0  0  0  0  0  0  0
   -0.8884    4.2814    0.0000 H   0  0  0  0  0  0  0  0  0  0  0  0
   -5.2351    5.4461    0.0000 H   0  0  0  0  0  0  0  0  0  0  0  0
   -3.3979    6.5067    0.0000 H   0  0  0  0  0  0  0  0  0  0  0  0
   -5.6233    3.9972    0.0000 H   0  0  0  0  0  0  0  0  0  0  0  0
   -5.9534    2.7220    0.0000 H   0  0  0  0  0  0  0  0  0  0  0  0
   -3.2507    1.4328    0.0000 H   0  0  0  0  0  0  0  0  0  0  0  0
   -5.6781   -0.6007    0.0000 H   0  0  0  0  0  0  0  0  0  0  0  0
   -6.3416    1.2731    0.0000 H   0  0  0  0  0  0  0  0  0  0  0  0
   -3.6390   -0.0161    0.0000 H   0  0  0  0  0  0  0  0  0  0  0  0
   -0.0318    4.2356    0.0000 H   0  0  0  0  0  0  0  0  0  0  0  0
   -1.3119    4.8306    0.0000 H   0  0  0  0  0  0  0  0  0  0  0  0
    1.2432    1.8595    0.0000 H   0  0  0  0  0  0  0  0  0  0  0  0
    0.7803    3.3604    0.0000 H   0  0  0  0  0  0  0  0  0  0  0  0
    1.8302   -1.1491    0.0000 H   0  0  0  0  0  0  0  0  0  0  0  0
    2.9793    0.1849    0.0000 H   0  0  0  0  0  0  0  0  0  0  0  0
    0.8072    2.2461    0.0000 H   0  0  0  0  0  0  0  0  0  0  0  0
    3.8174    1.2011    0.0000 H   0  0  0  0  0  0  0  0  0  0  0  0
    1.6453    3.2623    0.0000 H   0  0  0  0  0  0  0  0  0  0  0  0
    2.3503    3.9637    0.0000 H   0  0  0  0  0  0  0  0  0  0  0  0
    2.6449    5.1207    0.0000 H   0  0  0  0  0  0  0  0  0  0  0  0
    3.8315    6.3711    0.0000 H   0  0  0  0  0  0  0  0  0  0  0  0
    5.5334    7.0173    0.0000 H   0  0  0  0  0  0  0  0  0  0  0  0
    6.5213    6.9034    0.0000 H   0  0  0  0  0  0  0  0  0  0  0  0
    8.2774    6.2593    0.0000 H   0  0  0  0  0  0  0  0  0  0  0  0
    8.9983    5.3076    0.0000 H   0  0  0  0  0  0  0  0  0  0  0  0
    9.3619    3.9437    0.0000 H   0  0  0  0  0  0  0  0  0  0  0  0
    8.9770    2.4319    0.0000 H   0  0  0  0  0  0  0  0  0  0  0  0
    7.8283    1.3608    0.0000 H   0  0  0  0  0  0  0  0  0  0  0  0
    4.9615    0.7812    0.0000 H   0  0  0  0  0  0  0  0  0  0  0  0
    3.3824    1.4725    0.0000 H   0  0  0  0  0  0  0  0  0  0  0  0
    8.6648    2.9178    0.0000 H   0  0  0  0  0  0  0  0  0  0  0  0
    7.6715    5.9562    0.0000 H   0  0  0  0  0  0  0  0  0  0  0  0
    4.4367    4.3689    0.0000 H   0  0  0  0  0  0  0  0  0  0  0  0
   -2.0365   -1.4688    0.0000 H   0  0  0  0  0  0  0  0  0  0  0  0
  1  2  2  3
  2  3  1  0
  3  4  1  0
  4  5  1  0
  5  6  1  0
  5  7  1  0
  7  8  1  0
  8  9  1  0
 10  9  1  6
 10 11  1  0
 11 12  1  0
 12 13  1  0
 13 14  1  0
 14 15  1  0
 10 16  1  0
 16 17  1  0
 18 17  1  1
 18 19  1  0
 19 20  1  0
 20 21  1  0
 21 22  1  0
 22 23  1  0
 23 24  1  0
 24 25  1  0
 25 26  1  0
 26 27  1  0
 28 27  1  1
 28 29  1  0
 28 30  1  0
 30 31  1  0
 31 32  1  0
 19 33  1  0
 33 34  1  0
 34  8  1  0
 13 10  1  0
 33 18  1  0
 34 18  1  0
 29 22  1  0
 32 30  1  0
 31 24  1  0
 32 28  1  0
  1 35  1  0
  1 36  1  0
  2 37  1  0
  3 38  1  0
  3 39  1  0
  4 40  1  0
  4 41  1  0
  5 42  1  1
  6 43  1  0
  6 44  1  0
  6 45  1  0
  7 46  1  0
  7 47  1  0
 11 48  1  0
 11 49  1  0
 12 50  1  0
 12 51  1  0
 13 52  1  1
 14 53  1  0
 14 54  1  0
 15 55  1  0
 15 56  1  0
 15 57  1  0
 16 58  1  0
 16 59  1  0
 17 60  1  0
 17 61  1  0
 19 62  1  6
 20 63  1  0
 20 64  1  0
 21 65  1  0
 21 66  1  0
 22 67  1  1
 23 68  1  0
 23 69  1  0
 24 70  1  6
 25 71  1  0
 25 72  1  0
 26 73  1  0
 26 74  1  0
 27 75  1  0
 27 76  1  0
 29 77  1  0
 29 78  1  0
 30 79  1  1
 31 80  1  1
 32 81  1  1
 34 82  1  1
M  END
$$$$
