
     RDKit          2D

 56 58  0  0  0  0  0  0  0  0999 V2000
    0.6811    2.1132    0.0000 C   0  0  0  0  0  0  0  0  0  0  0  0
    1.8302    1.1491    0.0000 C   0  0  0  0  0  0  0  0  0  0  0  0
    2.9793    0.1849    0.0000 C   0  0  0  0  0  0  0  0  0  0  0  0
    4.1283   -0.7793    0.0000 C   0  0  0  0  0  0  0  0  0  0  0  0
    5.2774   -1.7435    0.0000 C   0  0  0  0  0  0  0  0  0  0  0  0
    6.2416   -0.5944    0.0000 O   0  0  0  0  0  0  0  0  0  0  0  0
    7.0266   -0.7328    0.0000 Br  0  0  0  0  0  0  0  0  0  0  0  0
    6.4265   -2.7077    0.0000 C   0  0  0  0  0  0  0  0  0  0  0  0
    7.8360   -3.2207    0.0000 C   0  0  0  0  0  0  0  0  0  0  0  0
    7.5755   -1.7435    0.0000 C   0  0  0  0  0  0  0  0  0  0  0  0
    8.9851   -1.2304    0.0000 N   0  0  0  0  0  0  0  0  0  0  0  0
    0.8660    0.0000    0.0000 C   0  0  0  0  0  0  0  0  0  0  0  0
   -0.4330    0.7500    0.0000 C   0  0  0  0  0  0  0  0  0  0  0  0
   -1.3147    1.9635    0.0000 C   0  0  0  0  0  0  0  0  0  0  0  0
   -2.7413    2.4271    0.0000 C   0  0  0  0  0  0  0  0  0  0  0  0
   -4.1679    1.9635    0.0000 C   0  0  0  0  0  0  0  0  0  0  0  0
   -5.0495    0.7500    0.0000 C   0  0  0  0  0  0  0  0  0  0  0  0
   -5.0495   -0.7500    0.0000 C   0  0  0  0  0  0  0  0  0  0  0  0
   -4.1679   -1.9635    0.0000 C   0  0  0  0  0  0  0  0  0  0  0  0
   -2.7413   -2.4271    0.0000 C   0  0  0  0  0  0  0  0  0  0  0  0
   -1.3147   -1.9635    0.0000 C   0  0  0  0  0  0  0  0  0  0  0  0
   -0.4330   -0.7500    0.0000 C   0  0  0  0  0  0  0  0  0  0  0  0
   -0.3418    3.2103    0.0000 H   0  0  0  0  0  0  0  0  0  0  0  0
   -0.1151    1.5348    0.0000 H   0  0  0  0  0  0  0  0  0  0  0  0
    1.6453    3.2623    0.0000 H   0  0  0  0  0  0  0  0  0  0  0  0
    2.7944    2.2981    0.0000 H   0  0  0  0  0  0  0  0  0  0  0  0
    3.9435    1.3340    0.0000 H   0  0  0  0  0  0  0  0  0  0  0  0
    2.1623   -1.0731    0.0000 H   0  0  0  0  0  0  0  0  0  0  0  0
    3.1642   -1.9284    0.0000 H   0  0  0  0  0  0  0  0  0  0  0  0
    5.0925    0.3698    0.0000 H   0  0  0  0  0  0  0  0  0  0  0  0
    4.3132   -2.8925    0.0000 H   0  0  0  0  0  0  0  0  0  0  0  0
    5.6765   -4.0067    0.0000 H   0  0  0  0  0  0  0  0  0  0  0  0
    7.5755   -4.6979    0.0000 H   0  0  0  0  0  0  0  0  0  0  0  0
    9.3360   -3.2207    0.0000 H   0  0  0  0  0  0  0  0  0  0  0  0
    7.3314   -0.8920    0.0000 H   0  0  0  0  0  0  0  0  0  0  0  0
   10.1341   -2.1946    0.0000 H   0  0  0  0  0  0  0  0  0  0  0  0
    9.2456    0.2468    0.0000 H   0  0  0  0  0  0  0  0  0  0  0  0
    1.6830   -1.2580    0.0000 H   0  0  0  0  0  0  0  0  0  0  0  0
    0.4273    1.9788    0.0000 H   0  0  0  0  0  0  0  0  0  0  0  0
   -1.1318    3.4523    0.0000 H   0  0  0  0  0  0  0  0  0  0  0  0
   -0.2728    3.0426    0.0000 H   0  0  0  0  0  0  0  0  0  0  0  0
   -3.4685    3.7390    0.0000 H   0  0  0  0  0  0  0  0  0  0  0  0
   -2.0141    3.7390    0.0000 H   0  0  0  0  0  0  0  0  0  0  0  0
   -5.5273    2.5975    0.0000 H   0  0  0  0  0  0  0  0  0  0  0  0
   -4.3507    3.4523    0.0000 H   0  0  0  0  0  0  0  0  0  0  0  0
   -6.5220    0.4638    0.0000 H   0  0  0  0  0  0  0  0  0  0  0  0
   -6.0726    1.8470    0.0000 H   0  0  0  0  0  0  0  0  0  0  0  0
   -6.0726   -1.8470    0.0000 H   0  0  0  0  0  0  0  0  0  0  0  0
   -6.5220   -0.4638    0.0000 H   0  0  0  0  0  0  0  0  0  0  0  0
   -4.3507   -3.4523    0.0000 H   0  0  0  0  0  0  0  0  0  0  0  0
   -5.5273   -2.5975    0.0000 H   0  0  0  0  0  0  0  0  0  0  0  0
   -2.0141   -3.7390    0.0000 H   0  0  0  0  0  0  0  0  0  0  0  0
   -3.4685   -3.7390    0.0000 H   0  0  0  0  0  0  0  0  0  0  0  0
    0.0448   -2.5975    0.0000 H   0  0  0  0  0  0  0  0  0  0  0  0
   -1.1318   -3.4523    0.0000 H   0  0  0  0  0  0  0  0  0  0  0  0
    0.6991   -1.7341    0.0000 H   0  0  0  0  0  0  0  0  0  0  0  0
  1  2  1  0
  2  3  1  0
  3  4  1  0
  4  5  1  0
  5  6  1  0
  6  7  1  0
  5  8  1  0
  8  9  1  0
  9 10  1  0
 10 11  1  0
  2 12  1  0
 12 13  1  0
 13 14  1  0
 14 15  1  0
 15 16  1  0
 16 17  1  0
 17 18  1  0
 18 19  1  0
 19 20  1  0
 20 21  1  0
 21 22  1  0
 10  8  1  0
 22 12  1  0
 22 13  1  0
  1 23  1  0
  1 24  1  0
  1 25  1  0
  2 26  1  0
  3 27  1  0
  3 28  1  0
  4 29  1  0
  4 30  1  0
  5 31  1  0
  8 32  1  0
  9 33  1  0
  9 34  1  0
 10 35  1  0
 11 36  1  0
 11 37  1  0
 12 38  1  0
 13 39  1  0
 14 40  1  0
 14 41  1  0
 15 42  1  0
 15 43  1  0
 16 44  1  0
 16 45  1  0
 17 46  1  0
 17 47  1  0
 18 48  1  0
 18 49  1  0
 19 50  1  0
 19 51  1  0
 20 52  1  0
 20 53  1  0
 21 54  1  0
 21 55  1  0
 22 56  1  0
M  END
$$$$
