
     RDKit          2D

 32 33  0  0  0  0  0  0  0  0999 V2000
   -3.0682    2.8515    0.0000 C   0  0  0  0  0  0  0  0  0  0  0  0
   -3.0682    1.3515    0.0000 C   0  0  0  0  0  0  0  0  0  0  0  0
   -1.6058    1.6852    0.0000 O   0  0  0  0  0  0  0  0  0  0  0  0
   -0.4330    0.7500    0.0000 C   0  0  0  0  0  0  0  0  0  0  0  0
    0.4120    1.9894    0.0000 C   0  0  0  0  0  0  0  0  0  0  0  0
    1.2569    3.2287    0.0000 C   0  0  0  0  0  0  0  0  0  0  0  0
    0.0176    4.0737    0.0000 O   0  0  0  0  0  0  0  0  0  0  0  0
    2.1019    4.4681    0.0000 C   0  0  0  0  0  0  0  0  0  0  0  0
    2.9469    5.7074    0.0000 O   0  0  0  0  0  0  0  0  0  0  0  0
    0.8660    0.0000    0.0000 C   0  0  0  0  0  0  0  0  0  0  0  0
   -0.4330   -0.7500    0.0000 C   0  0  0  0  0  0  0  0  0  0  0  0
   -1.6058   -1.6852    0.0000 N   0  0  0  0  0  0  0  0  0  0  0  0
   -3.0682   -1.3515    0.0000 O   0  0  0  0  0  0  0  0  0  0  0  0
   -3.7190    0.0000    0.0000 C   0  0  0  0  0  0  0  0  0  0  0  0
   -4.8917    0.9352    0.0000 O   0  0  0  0  0  0  0  0  0  0  0  0
   -3.0682    4.3515    0.0000 H   0  0  0  0  0  0  0  0  0  0  0  0
   -4.2832    2.8515    0.0000 H   0  0  0  0  0  0  0  0  0  0  0  0
   -1.7282    3.0160    0.0000 H   0  0  0  0  0  0  0  0  0  0  0  0
   -4.1521    1.9004    0.0000 H   0  0  0  0  0  0  0  0  0  0  0  0
    1.2866    1.5382    0.0000 H   0  0  0  0  0  0  0  0  0  0  0  0
   -0.6024    2.8801    0.0000 H   0  0  0  0  0  0  0  0  0  0  0  0
    2.4963    2.3837    0.0000 H   0  0  0  0  0  0  0  0  0  0  0  0
   -0.0535    5.5720    0.0000 H   0  0  0  0  0  0  0  0  0  0  0  0
    3.3413    3.6231    0.0000 H   0  0  0  0  0  0  0  0  0  0  0  0
    0.9748    5.4578    0.0000 H   0  0  0  0  0  0  0  0  0  0  0  0
    4.4427    5.5953    0.0000 H   0  0  0  0  0  0  0  0  0  0  0  0
    1.5858    0.6712    0.0000 H   0  0  0  0  0  0  0  0  0  0  0  0
    1.8302   -1.1491    0.0000 H   0  0  0  0  0  0  0  0  0  0  0  0
    0.4120   -1.9894    0.0000 H   0  0  0  0  0  0  0  0  0  0  0  0
   -1.2720   -3.1476    0.0000 H   0  0  0  0  0  0  0  0  0  0  0  0
   -4.8917   -0.9352    0.0000 H   0  0  0  0  0  0  0  0  0  0  0  0
   -6.2880    0.3872    0.0000 H   0  0  0  0  0  0  0  0  0  0  0  0
  1  2  1  0
  2  3  1  0
  3  4  1  0
  4  5  1  6
  5  6  1  0
  6  7  1  0
  6  8  1  0
  8  9  1  0
  4 10  1  0
 10 11  1  0
 11 12  1  0
 12 13  1  0
 13 14  1  0
 14 15  1  0
 14  2  1  0
 11  4  1  0
  1 16  1  0
  1 17  1  0
  1 18  1  0
  2 19  1  1
  5 20  1  0
  5 21  1  0
  6 22  1  6
  7 23  1  0
  8 24  1  0
  8 25  1  0
  9 26  1  0
 10 27  1  0
 10 28  1  0
 11 29  1  6
 12 30  1  0
 14 31  1  6
 15 32  1  0
M  END
$$$$
