
     RDKit          2D

 65 69  0  0  0  0  0  0  0  0999 V2000
   -8.3989    1.4464    0.0000 C   0  0  0  0  0  0  0  0  0  0  0  0
   -7.2023    0.5418    0.0000 C   0  0  0  0  0  0  0  0  0  0  0  0
   -6.7388    1.9684    0.0000 O   0  0  0  0  0  0  0  0  0  0  0  0
   -5.5776    2.9179    0.0000 C   0  0  0  0  0  0  0  0  0  0  0  0
   -4.0874    3.0889    0.0000 O   0  0  0  0  0  0  0  0  0  0  0  0
   -2.7413    2.4271    0.0000 C   0  0  0  0  0  0  0  0  0  0  0  0
   -1.3147    1.9635    0.0000 C   0  0  0  0  0  0  0  0  0  0  0  0
   -0.4330    0.7500    0.0000 C   0  0  0  0  0  0  0  0  0  0  0  0
    0.8660    0.0000    0.0000 O   0  0  0  0  0  0  0  0  0  0  0  0
   -0.4330   -0.7500    0.0000 C   0  0  0  0  0  0  0  0  0  0  0  0
   -1.3147   -1.9635    0.0000 C   0  0  0  0  0  0  0  0  0  0  0  0
   -2.7413   -2.4271    0.0000 C   0  0  0  0  0  0  0  0  0  0  0  0
   -4.1679   -1.9635    0.0000 N   0  0  0  0  0  0  0  0  0  0  0  0
   -5.0495   -0.7500    0.0000 C   0  0  0  0  0  0  0  0  0  0  0  0
   -5.0495    0.7500    0.0000 C   0  0  0  0  0  0  0  0  0  0  0  0
   -4.6515    0.6207    0.0000 C   0  0  0  0  0  0  0  0  0  0  0  0
   -5.0698    0.7566    0.0000 C   0  0  0  0  0  0  0  0  0  0  0  0
   -4.6515    0.6207    0.0000 C   0  0  0  0  0  0  0  0  0  0  0  0
   -4.1679    1.9635    0.0000 C   0  0  0  0  0  0  0  0  0  0  0  0
   -4.1679    3.4635    0.0000 O   0  0  0  0  0  0  0  0  0  0  0  0
   -2.8688    4.2135    0.0000 C   0  0  0  0  0  0  0  0  0  0  0  0
   -2.2587    2.8432    0.0000 O   0  0  0  0  0  0  0  0  0  0  0  0
   -1.4422    4.6771    0.0000 C   0  0  0  0  0  0  0  0  0  0  0  0
   -1.4422    6.1771    0.0000 O   0  0  0  0  0  0  0  0  0  0  0  0
   -2.8688    6.6406    0.0000 C   0  0  0  0  0  0  0  0  0  0  0  0
   -3.3323    8.0672    0.0000 O   0  0  0  0  0  0  0  0  0  0  0  0
   -3.7505    5.4271    0.0000 C   0  0  0  0  0  0  0  0  0  0  0  0
   -5.7159   -1.9232    0.0000 C   0  0  0  0  0  0  0  0  0  0  0  0
   -6.3777   -3.2693    0.0000 N   0  0  0  0  0  0  0  0  0  0  0  0
   -6.8210   -0.9089    0.0000 C   0  0  0  0  0  0  0  0  0  0  0  0
   -8.3167   -0.7948    0.0000 C   0  0  0  0  0  0  0  0  0  0  0  0
   -9.5954    2.3510    0.0000 H   0  0  0  0  0  0  0  0  0  0  0  0
   -9.3035    0.2499    0.0000 H   0  0  0  0  0  0  0  0  0  0  0  0
   -7.6468    2.7443    0.0000 H   0  0  0  0  0  0  0  0  0  0  0  0
   -8.6650    0.2091    0.0000 H   0  0  0  0  0  0  0  0  0  0  0  0
   -5.4327    4.4109    0.0000 H   0  0  0  0  0  0  0  0  0  0  0  0
   -6.7493    3.8545    0.0000 H   0  0  0  0  0  0  0  0  0  0  0  0
   -2.3783    3.8825    0.0000 H   0  0  0  0  0  0  0  0  0  0  0  0
    0.0448    2.5975    0.0000 H   0  0  0  0  0  0  0  0  0  0  0  0
   -1.1318    3.4523    0.0000 H   0  0  0  0  0  0  0  0  0  0  0  0
    0.6991    1.7341    0.0000 H   0  0  0  0  0  0  0  0  0  0  0  0
    0.6991   -1.7341    0.0000 H   0  0  0  0  0  0  0  0  0  0  0  0
   -1.1318   -3.4523    0.0000 H   0  0  0  0  0  0  0  0  0  0  0  0
    0.0448   -2.5975    0.0000 H   0  0  0  0  0  0  0  0  0  0  0  0
   -3.6230   -3.6406    0.0000 H   0  0  0  0  0  0  0  0  0  0  0  0
   -2.0141   -3.7390    0.0000 H   0  0  0  0  0  0  0  0  0  0  0  0
   -6.4761   -0.2865    0.0000 H   0  0  0  0  0  0  0  0  0  0  0  0
   -6.0726   -1.8470    0.0000 H   0  0  0  0  0  0  0  0  0  0  0  0
   -6.5693    3.3300    0.0000 H   0  0  0  0  0  0  0  0  0  0  0  0
   -4.8703    3.3153    0.0000 H   0  0  0  0  0  0  0  0  0  0  0  0
   -8.5588    1.2489    0.0000 H   0  0  0  0  0  0  0  0  0  0  0  0
   -7.5800    2.8151    0.0000 H   0  0  0  0  0  0  0  0  0  0  0  0
   -6.2294   -1.4228    0.0000 H   0  0  0  0  0  0  0  0  0  0  0  0
   -7.7956   -0.4440    0.0000 H   0  0  0  0  0  0  0  0  0  0  0  0
   -2.7413    2.4271    0.0000 H   0  0  0  0  0  0  0  0  0  0  0  0
   -0.7972    2.5057    0.0000 H   0  0  0  0  0  0  0  0  0  0  0  0
   -0.7846    3.3289    0.0000 H   0  0  0  0  0  0  0  0  0  0  0  0
    0.0495    4.8338    0.0000 H   0  0  0  0  0  0  0  0  0  0  0  0
   -4.8652    6.4307    0.0000 H   0  0  0  0  0  0  0  0  0  0  0  0
   -4.9793    4.5667    0.0000 H   0  0  0  0  0  0  0  0  0  0  0  0
   -7.8744   -3.3692    0.0000 H   0  0  0  0  0  0  0  0  0  0  0  0
   -7.4180   -2.2850    0.0000 H   0  0  0  0  0  0  0  0  0  0  0  0
   -9.8123   -0.6807    0.0000 H   0  0  0  0  0  0  0  0  0  0  0  0
   -8.4308   -2.2905    0.0000 H   0  0  0  0  0  0  0  0  0  0  0  0
   -8.7462    0.6424    0.0000 H   0  0  0  0  0  0  0  0  0  0  0  0
  1  2  1  0
  2  3  1  0
  3  4  1  0
  4  5  1  0
  5  6  1  0
  6  7  1  0
  7  8  1  0
  8  9  1  0
  9 10  1  0
 10 11  1  0
 11 12  1  0
 12 13  1  0
 13 14  1  0
 14 15  1  0
 15 16  1  0
 16 17  1  0
 17 18  1  0
 15 19  1  0
 19 20  1  0
 20 21  1  0
 21 22  1  0
 21 23  1  0
 23 24  1  0
 24 25  1  0
 25 26  2  0
 25 27  1  0
 13 28  1  0
 28 29  2  3
 28 30  1  0
 30 31  1  0
 30  2  1  0
 19  6  1  0
 27 21  1  0
 10  8  1  0
 18 15  1  0
  1 32  1  0
  1 33  1  0
  1 34  1  0
  2 35  1  0
  4 36  1  0
  4 37  1  0
  6 38  1  0
  7 39  1  0
  7 40  1  0
  8 41  1  0
 10 42  1  0
 11 43  1  0
 11 44  1  0
 12 45  1  0
 12 46  1  0
 14 47  1  0
 14 48  1  0
 16 49  1  0
 16 50  1  0
 17 51  1  0
 17 52  1  0
 18 53  1  0
 18 54  1  0
 19 55  1  0
 22 56  1  0
 23 57  1  0
 23 58  1  0
 27 59  1  0
 27 60  1  0
 29 61  1  0
 30 62  1  0
 31 63  1  0
 31 64  1  0
 31 65  1  0
M  END
$$$$
