
     RDKit          2D

 66 71  0  0  0  0  0  0  0  0999 V2000
    4.9320    1.5439    0.0000 C   0  0  0  0  0  0  0  0  0  0  0  0
    3.5054    2.0074    0.0000 C   0  0  0  0  0  0  0  0  0  0  0  0
    2.3907    1.0037    0.0000 C   0  0  0  0  0  0  0  0  0  0  0  0
    1.2760    0.0000    0.0000 C   0  0  0  0  0  0  0  0  0  0  0  0
    0.3943    1.2135    0.0000 C   0  0  0  0  0  0  0  0  0  0  0  0
   -1.0323    0.7500    0.0000 N   0  0  0  0  0  0  0  0  0  0  0  0
   -1.0323   -0.7500    0.0000 C   0  0  0  0  0  0  0  0  0  0  0  0
   -2.3532   -0.0392    0.0000 N   0  0  0  0  0  0  0  0  0  0  0  0
   -3.8525   -0.0841    0.0000 C   0  0  0  0  0  0  0  0  0  0  0  0
   -3.1417    1.2368    0.0000 C   0  0  0  0  0  0  0  0  0  0  0  0
   -4.3191    2.1662    0.0000 C   0  0  0  0  0  0  0  0  0  0  0  0
   -5.4965    3.0956    0.0000 C   0  0  0  0  0  0  0  0  0  0  0  0
   -6.4549    4.2494    0.0000 C   0  0  0  0  0  0  0  0  0  0  0  0
   -7.8485    3.6945    0.0000 C   0  0  0  0  0  0  0  0  0  0  0  0
   -9.0962    2.8619    0.0000 C   0  0  0  0  0  0  0  0  0  0  0  0
   -7.7513    2.1976    0.0000 N   0  0  0  0  0  0  0  0  0  0  0  0
   -6.2977    1.8275    0.0000 C   0  0  0  0  0  0  0  0  0  0  0  0
   -6.8178    0.4205    0.0000 C   0  0  0  0  0  0  0  0  0  0  0  0
   -7.3378   -0.9864    0.0000 C   0  0  0  0  0  0  0  0  0  0  0  0
   -8.8163   -1.2395    0.0000 C   0  0  0  0  0  0  0  0  0  0  0  0
   -2.2841   -1.5763    0.0000 C   0  0  0  0  0  0  0  0  0  0  0  0
   -2.1010    0.4901    0.0000 C   0  0  0  0  0  0  0  0  0  0  0  0
   -1.0622    1.5722    0.0000 C   0  0  0  0  0  0  0  0  0  0  0  0
   -1.4799    3.0128    0.0000 C   0  0  0  0  0  0  0  0  0  0  0  0
   -2.4186   -3.0703    0.0000 O   0  0  0  0  0  0  0  0  0  0  0  0
   -1.3344   -4.1069    0.0000 C   0  0  0  0  0  0  0  0  0  0  0  0
    0.1520   -3.9056    0.0000 C   0  0  0  0  0  0  0  0  0  0  0  0
    0.9214   -2.6179    0.0000 C   0  0  0  0  0  0  0  0  0  0  0  0
    0.3943   -1.2135    0.0000 C   0  0  0  0  0  0  0  0  0  0  0  0
    6.0467    2.5476    0.0000 H   0  0  0  0  0  0  0  0  0  0  0  0
    5.2439    0.0766    0.0000 H   0  0  0  0  0  0  0  0  0  0  0  0
    3.1935    3.4746    0.0000 H   0  0  0  0  0  0  0  0  0  0  0  0
    1.5304    2.2324    0.0000 H   0  0  0  0  0  0  0  0  0  0  0  0
    3.3944   -0.1110    0.0000 H   0  0  0  0  0  0  0  0  0  0  0  0
    2.5047   -0.8603    0.0000 H   0  0  0  0  0  0  0  0  0  0  0  0
    0.6805    2.6860    0.0000 H   0  0  0  0  0  0  0  0  0  0  0  0
   -1.9964    1.8991    0.0000 H   0  0  0  0  0  0  0  0  0  0  0  0
   -4.2480   -1.5310    0.0000 H   0  0  0  0  0  0  0  0  0  0  0  0
   -5.3235    0.2094    0.0000 H   0  0  0  0  0  0  0  0  0  0  0  0
   -2.1520    2.3640    0.0000 H   0  0  0  0  0  0  0  0  0  0  0  0
   -3.5402    3.4481    0.0000 H   0  0  0  0  0  0  0  0  0  0  0  0
   -5.2485    0.9888    0.0000 H   0  0  0  0  0  0  0  0  0  0  0  0
   -4.4491    4.1694    0.0000 H   0  0  0  0  0  0  0  0  0  0  0  0
   -5.2072    5.0820    0.0000 H   0  0  0  0  0  0  0  0  0  0  0  0
   -7.1525    5.5774    0.0000 H   0  0  0  0  0  0  0  0  0  0  0  0
   -8.5461    5.0224    0.0000 H   0  0  0  0  0  0  0  0  0  0  0  0
  -10.1328    3.9461    0.0000 H   0  0  0  0  0  0  0  0  0  0  0  0
   -9.9839    1.6528    0.0000 H   0  0  0  0  0  0  0  0  0  0  0  0
   -4.9528    1.1632    0.0000 H   0  0  0  0  0  0  0  0  0  0  0  0
   -5.4847   -0.2672    0.0000 H   0  0  0  0  0  0  0  0  0  0  0  0
   -8.2247    0.9406    0.0000 H   0  0  0  0  0  0  0  0  0  0  0  0
   -6.3794   -2.1403    0.0000 H   0  0  0  0  0  0  0  0  0  0  0  0
   -9.3364   -2.6465    0.0000 H   0  0  0  0  0  0  0  0  0  0  0  0
   -9.7747   -0.0857    0.0000 H   0  0  0  0  0  0  0  0  0  0  0  0
   -3.7823   -1.5017    0.0000 H   0  0  0  0  0  0  0  0  0  0  0  0
   -2.8320    1.7999    0.0000 H   0  0  0  0  0  0  0  0  0  0  0  0
   -3.5949    0.3551    0.0000 H   0  0  0  0  0  0  0  0  0  0  0  0
   -0.4410    4.0949    0.0000 H   0  0  0  0  0  0  0  0  0  0  0  0
   -2.8818    3.5463    0.0000 H   0  0  0  0  0  0  0  0  0  0  0  0
   -2.5863   -4.9332    0.0000 H   0  0  0  0  0  0  0  0  0  0  0  0
   -0.9825   -5.5650    0.0000 H   0  0  0  0  0  0  0  0  0  0  0  0
    0.2007   -5.4048    0.0000 H   0  0  0  0  0  0  0  0  0  0  0  0
    1.5115   -4.5395    0.0000 H   0  0  0  0  0  0  0  0  0  0  0  0
    2.1238   -3.5146    0.0000 H   0  0  0  0  0  0  0  0  0  0  0  0
    2.2646   -1.9503    0.0000 H   0  0  0  0  0  0  0  0  0  0  0  0
   -0.2565    0.1379    0.0000 H   0  0  0  0  0  0  0  0  0  0  0  0
  1  2  2  3
  2  3  1  0
  3  4  1  0
  4  5  1  0
  5  6  1  0
  6  7  1  0
  7  8  1  0
  8  9  1  0
  9 10  1  0
 10 11  1  0
 11 12  1  0
 12 13  1  0
 13 14  1  0
 14 15  1  0
 15 16  1  0
 16 17  1  0
 17 18  1  0
 18 19  1  0
 19 20  2  3
  7 21  1  0
 21 22  1  0
 22 23  1  0
 23 24  2  3
 21 25  1  0
 25 26  1  0
 26 27  1  0
 27 28  1  0
 28 29  1  0
 29  4  1  0
 23  5  1  0
 29  7  1  0
 10  8  1  0
 17 12  1  0
 16 14  1  0
  1 30  1  0
  1 31  1  0
  2 32  1  0
  3 33  1  0
  3 34  1  0
  4 35  1  0
  5 36  1  0
  6 37  1  0
  9 38  1  0
  9 39  1  0
 10 40  1  0
 11 41  1  0
 11 42  1  0
 12 43  1  0
 13 44  1  0
 13 45  1  0
 14 46  1  0
 15 47  1  0
 15 48  1  0
 17 49  1  0
 18 50  1  0
 18 51  1  0
 19 52  1  0
 20 53  1  0
 20 54  1  0
 21 55  1  0
 22 56  1  0
 22 57  1  0
 24 58  1  0
 24 59  1  0
 26 60  1  0
 26 61  1  0
 27 62  1  0
 27 63  1  0
 28 64  1  0
 28 65  1  0
 29 66  1  0
M  END
$$$$
