
     RDKit          2D

 62 65  0  0  0  0  0  0  0  0999 V2000
    3.6206   -6.2711    0.0000 C   0  0  0  0  0  0  0  0  0  0  0  0
    2.8706   -4.9721    0.0000 C   0  0  0  0  0  0  0  0  0  0  0  0
    2.1206   -3.6731    0.0000 C   0  0  0  0  0  0  0  0  0  0  0  0
    1.3706   -2.3740    0.0000 Si  0  0  0  0  0  4  0  0  0  0  0  0
    1.9807   -1.0037    0.0000 C   0  0  0  0  0  0  0  0  0  0  0  0
    0.8660   -0.0000    0.0000 C   0  0  0  0  0  0  0  0  0  0  0  0
   -0.4330    0.7500    0.0000 C   0  0  0  0  0  0  0  0  0  0  0  0
   -1.7321    0.0000    0.0000 C   0  0  0  0  0  0  0  0  0  0  0  0
   -1.3041   -1.4376    0.0000 C   0  0  0  0  0  0  0  0  0  0  0  0
   -2.7786   -1.7130    0.0000 C   0  0  0  0  0  0  0  0  0  0  0  0
   -4.2531   -1.9884    0.0000 C   0  0  0  0  0  0  0  0  0  0  0  0
   -3.9777   -3.4629    0.0000 C   0  0  0  0  0  0  0  0  0  0  0  0
   -5.7276   -2.2638    0.0000 C   0  0  0  0  0  0  0  0  0  0  0  0
   -6.3951   -3.6071    0.0000 O   0  0  0  0  0  0  0  0  0  0  0  0
   -4.5284   -0.5139    0.0000 C   0  0  0  0  0  0  0  0  0  0  0  0
   -4.8038    0.9606    0.0000 N   0  0  0  0  0  0  0  0  0  0  0  0
   -6.2185    1.4594    0.0000 C   0  0  0  0  0  0  0  0  0  0  0  0
   -5.7197    2.8740    0.0000 C   0  0  0  0  0  0  0  0  0  0  0  0
   -6.7172    0.0447    0.0000 C   0  0  0  0  0  0  0  0  0  0  0  0
   -7.2160   -1.3699    0.0000 C   0  0  0  0  0  0  0  0  0  0  0  0
   -7.6331    1.9581    0.0000 C   0  0  0  0  0  0  0  0  0  0  0  0
   -9.0478    2.4569    0.0000 C   0  0  0  0  0  0  0  0  0  0  0  0
  -10.4624    2.9557    0.0000 O   0  0  0  0  0  0  0  0  0  0  0  0
   -0.4330   -0.7500    0.0000 C   0  0  0  0  0  0  0  0  0  0  0  0
   -0.1211   -2.2172    0.0000 C   0  0  0  0  0  0  0  0  0  0  0  0
    4.3706   -7.5702    0.0000 H   0  0  0  0  0  0  0  0  0  0  0  0
    4.9197   -5.5211    0.0000 H   0  0  0  0  0  0  0  0  0  0  0  0
    2.3216   -7.0211    0.0000 H   0  0  0  0  0  0  0  0  0  0  0  0
    4.1697   -4.2221    0.0000 H   0  0  0  0  0  0  0  0  0  0  0  0
    1.5716   -5.7221    0.0000 H   0  0  0  0  0  0  0  0  0  0  0  0
    0.8216   -4.4231    0.0000 H   0  0  0  0  0  0  0  0  0  0  0  0
    3.4197   -2.9231    0.0000 H   0  0  0  0  0  0  0  0  0  0  0  0
    3.2798   -1.7537    0.0000 H   0  0  0  0  0  0  0  0  0  0  0  0
    2.8624    0.2098    0.0000 H   0  0  0  0  0  0  0  0  0  0  0  0
    1.7477    1.2135    0.0000 H   0  0  0  0  0  0  0  0  0  0  0  0
   -0.4330    2.2500    0.0000 H   0  0  0  0  0  0  0  0  0  0  0  0
   -2.7089    0.1200    0.0000 H   0  0  0  0  0  0  0  0  0  0  0  0
   -1.3675   -2.9363    0.0000 H   0  0  0  0  0  0  0  0  0  0  0  0
   -2.5110   -2.5574    0.0000 H   0  0  0  0  0  0  0  0  0  0  0  0
   -3.0758   -0.7748    0.0000 H   0  0  0  0  0  0  0  0  0  0  0  0
   -3.7023   -4.9374    0.0000 H   0  0  0  0  0  0  0  0  0  0  0  0
   -5.4076   -3.9160    0.0000 H   0  0  0  0  0  0  0  0  0  0  0  0
   -3.0937   -3.4076    0.0000 H   0  0  0  0  0  0  0  0  0  0  0  0
   -6.5522   -1.9404    0.0000 H   0  0  0  0  0  0  0  0  0  0  0  0
   -5.8758   -0.5981    0.0000 H   0  0  0  0  0  0  0  0  0  0  0  0
   -5.8154   -0.9216    0.0000 H   0  0  0  0  0  0  0  0  0  0  0  0
   -3.5541    1.7902    0.0000 H   0  0  0  0  0  0  0  0  0  0  0  0
   -5.2209    4.2887    0.0000 H   0  0  0  0  0  0  0  0  0  0  0  0
   -7.0630    3.5415    0.0000 H   0  0  0  0  0  0  0  0  0  0  0  0
   -4.2548    2.5514    0.0000 H   0  0  0  0  0  0  0  0  0  0  0  0
   -8.1821    0.3673    0.0000 H   0  0  0  0  0  0  0  0  0  0  0  0
   -5.7025   -1.0599    0.0000 H   0  0  0  0  0  0  0  0  0  0  0  0
   -7.7148   -2.7846    0.0000 H   0  0  0  0  0  0  0  0  0  0  0  0
   -8.6307   -0.8711    0.0000 H   0  0  0  0  0  0  0  0  0  0  0  0
   -5.9641   -2.1962    0.0000 H   0  0  0  0  0  0  0  0  0  0  0  0
   -7.3105    3.4230    0.0000 H   0  0  0  0  0  0  0  0  0  0  0  0
   -8.3006    0.6148    0.0000 H   0  0  0  0  0  0  0  0  0  0  0  0
   -9.5465    1.0423    0.0000 H   0  0  0  0  0  0  0  0  0  0  0  0
   -8.5490    3.8716    0.0000 H   0  0  0  0  0  0  0  0  0  0  0  0
  -10.7378    4.4302    0.0000 H   0  0  0  0  0  0  0  0  0  0  0  0
   -1.5827   -2.5547    0.0000 H   0  0  0  0  0  0  0  0  0  0  0  0
   -0.1211   -3.7172    0.0000 H   0  0  0  0  0  0  0  0  0  0  0  0
  1  2  1  0
  2  3  1  0
  3  4  1  0
  4  5  1  0
  5  6  1  0
  6  7  1  0
  7  8  1  0
  8  9  1  0
  9 10  1  0
 10 11  1  0
 11 12  1  0
 11 13  1  0
 13 14  2  0
 11 15  1  0
 15 16  1  0
 16 17  1  0
 17 18  1  0
 17 19  1  0
 19 20  1  0
 17 21  1  0
 21 22  1  0
 22 23  1  0
  8 24  1  0
 24 25  1  0
  9  4  1  0
 25  4  1  0
 24  6  1  0
 24  7  1  0
  1 26  1  0
  1 27  1  0
  1 28  1  0
  2 29  1  0
  2 30  1  0
  3 31  1  0
  3 32  1  0
  5 33  1  0
  5 34  1  0
  6 35  1  0
  7 36  1  0
  8 37  1  0
  9 38  1  0
 10 39  1  0
 10 40  1  0
 12 41  1  0
 12 42  1  0
 12 43  1  0
 13 44  1  0
 15 45  1  0
 15 46  1  0
 16 47  1  0
 18 48  1  0
 18 49  1  0
 18 50  1  0
 19 51  1  0
 19 52  1  0
 20 53  1  0
 20 54  1  0
 20 55  1  0
 21 56  1  0
 21 57  1  0
 22 58  1  0
 22 59  1  0
 23 60  1  0
 25 61  1  0
 25 62  1  0
M  END
$$$$
