
     RDKit          2D

103114  0  0  0  0  0  0  0  0999 V2000
   -9.9595   -2.4332    0.0000 C   0  0  0  0  0  0  0  0  0  0  0  0
  -10.0641   -3.9295    0.0000 C   0  0  0  0  0  0  0  0  0  0  0  0
  -11.4123   -4.5871    0.0000 C   0  0  0  0  0  0  0  0  0  0  0  0
  -12.7605   -5.2446    0.0000 C   0  0  0  0  0  0  0  0  0  0  0  0
   -8.8206   -4.7683    0.0000 C   0  0  0  0  0  0  0  0  0  0  0  0
   -7.5770   -5.6071    0.0000 C   0  0  0  0  0  0  0  0  0  0  0  0
   -6.3335   -6.4459    0.0000 C   0  0  0  0  0  0  0  0  0  0  0  0
   -5.7234   -5.0756    0.0000 C   0  0  0  0  0  0  0  0  0  0  0  0
   -4.2316   -4.9188    0.0000 C   0  0  0  0  0  0  0  0  0  0  0  0
   -3.3499   -6.1323    0.0000 C   0  0  0  0  0  0  0  0  0  0  0  0
   -3.9600   -7.5026    0.0000 C   0  0  0  0  0  0  0  0  0  0  0  0
   -3.0783   -8.7161    0.0000 O   0  0  0  0  0  0  0  0  0  0  0  0
   -1.5866   -8.5593    0.0000 C   0  0  0  0  0  0  0  0  0  0  0  0
    0.5776   -4.6530    0.0000 C   0  0  0  0  0  0  0  0  0  0  0  0
    0.4208   -3.1612    0.0000 C   0  0  0  0  0  0  0  0  0  0  0  0
   -0.7449   -2.2172    0.0000 C   0  0  0  0  0  0  0  0  0  0  0  0
   -2.2367   -2.3740    0.0000 C   0  0  0  0  0  0  0  0  0  0  0  0
   -2.8468   -1.0037    0.0000 C   0  0  0  0  0  0  0  0  0  0  0  0
   -1.7321    0.0000    0.0000 C   0  0  0  0  0  0  0  0  0  0  0  0
   -0.4330    0.7500    0.0000 C   0  0  0  0  0  0  0  0  0  0  0  0
    0.8660    0.0000    0.0000 C   0  0  0  0  0  0  0  0  0  0  0  0
   -0.4330   -0.7500    0.0000 C   0  0  0  0  0  0  0  0  0  0  0  0
   -3.1806   -3.5397    0.0000 C   0  0  0  0  0  0  0  0  0  0  0  0
   -3.0239   -5.0315    0.0000 C   0  0  0  0  0  0  0  0  0  0  0  0
   -1.8581   -5.9755    0.0000 C   0  0  0  0  0  0  0  0  0  0  0  0
   -0.3663   -5.8187    0.0000 C   0  0  0  0  0  0  0  0  0  0  0  0
   -0.9765   -7.1890    0.0000 C   0  0  0  0  0  0  0  0  0  0  0  0
   -2.2390   -7.1099    0.0000 C   0  0  0  0  0  0  0  0  0  0  0  0
   -1.3917   -9.3496    0.0000 I   0  0  0  0  0  0  0  0  0  0  0  0
   -3.0619   -5.9961    0.0000 C   0  0  0  0  0  0  0  0  0  0  0  0
   -4.4259   -6.1558    0.0000 C   0  0  0  0  0  0  0  0  0  0  0  0
   -5.4486   -8.2793    0.0000 C   0  0  0  0  0  0  0  0  0  0  0  0
   -6.1306   -9.6152    0.0000 C   0  0  0  0  0  0  0  0  0  0  0  0
   -6.8126  -10.9512    0.0000 N   0  0  0  0  0  0  0  0  0  0  0  0
   -5.3458   -5.2701    0.0000 C   0  0  0  0  0  0  0  0  0  0  0  0
   -5.4518   -7.6594    0.0000 C   0  0  0  0  0  0  0  0  0  0  0  0
   -4.6216   -3.9565    0.0000 C   0  0  0  0  0  0  0  0  0  0  0  0
   -4.6512   -2.4568    0.0000 C   0  0  0  0  0  0  0  0  0  0  0  0
   -7.9818   -3.5247    0.0000 Si  0  0  0  0  0  4  0  0  0  0  0  0
   -6.6115   -4.1348    0.0000 O   0  0  0  0  0  0  0  0  0  0  0  0
   -9.0608   -2.4828    0.0000 C   0  0  0  0  0  0  0  0  0  0  0  0
   -9.4743   -1.0409    0.0000 C   0  0  0  0  0  0  0  0  0  0  0  0
   -8.0324   -0.6274    0.0000 C   0  0  0  0  0  0  0  0  0  0  0  0
   -7.6189   -2.0693    0.0000 C   0  0  0  0  0  0  0  0  0  0  0  0
   -6.1191   -2.0431    0.0000 C   0  0  0  0  0  0  0  0  0  0  0  0
  -11.2960   -1.7522    0.0000 H   0  0  0  0  0  0  0  0  0  0  0  0
   -8.6113   -1.7756    0.0000 H   0  0  0  0  0  0  0  0  0  0  0  0
  -12.0699   -3.2389    0.0000 H   0  0  0  0  0  0  0  0  0  0  0  0
  -10.7548   -5.9353    0.0000 H   0  0  0  0  0  0  0  0  0  0  0  0
  -14.1087   -5.9022    0.0000 H   0  0  0  0  0  0  0  0  0  0  0  0
  -12.1030   -6.5928    0.0000 H   0  0  0  0  0  0  0  0  0  0  0  0
  -13.4181   -3.8964    0.0000 H   0  0  0  0  0  0  0  0  0  0  0  0
   -9.6594   -6.0119    0.0000 H   0  0  0  0  0  0  0  0  0  0  0  0
   -6.7382   -4.3635    0.0000 H   0  0  0  0  0  0  0  0  0  0  0  0
   -8.4158   -6.8506    0.0000 H   0  0  0  0  0  0  0  0  0  0  0  0
   -7.4992   -7.3898    0.0000 H   0  0  0  0  0  0  0  0  0  0  0  0
   -5.8019   -3.5776    0.0000 H   0  0  0  0  0  0  0  0  0  0  0  0
   -7.1788   -4.7127    0.0000 H   0  0  0  0  0  0  0  0  0  0  0  0
   -3.3500   -3.7051    0.0000 H   0  0  0  0  0  0  0  0  0  0  0  0
   -4.4662   -3.4372    0.0000 H   0  0  0  0  0  0  0  0  0  0  0  0
   -4.7594   -6.6454    0.0000 H   0  0  0  0  0  0  0  0  0  0  0  0
   -4.5701   -8.8729    0.0000 H   0  0  0  0  0  0  0  0  0  0  0  0
   -0.5635   -9.6563    0.0000 H   0  0  0  0  0  0  0  0  0  0  0  0
    2.0159   -5.0790    0.0000 H   0  0  0  0  0  0  0  0  0  0  0  0
    1.0309   -1.7909    0.0000 H   0  0  0  0  0  0  0  0  0  0  0  0
    1.9024   -3.3959    0.0000 H   0  0  0  0  0  0  0  0  0  0  0  0
   -1.8329   -1.1847    0.0000 H   0  0  0  0  0  0  0  0  0  0  0  0
   -3.7366   -2.3610    0.0000 H   0  0  0  0  0  0  0  0  0  0  0  0
   -4.2887   -1.4171    0.0000 H   0  0  0  0  0  0  0  0  0  0  0  0
   -3.7284    0.2098    0.0000 H   0  0  0  0  0  0  0  0  0  0  0  0
   -2.6137    1.2135    0.0000 H   0  0  0  0  0  0  0  0  0  0  0  0
   -0.4330    2.2500    0.0000 H   0  0  0  0  0  0  0  0  0  0  0  0
    1.8302    1.1491    0.0000 H   0  0  0  0  0  0  0  0  0  0  0  0
    1.8302   -1.1491    0.0000 H   0  0  0  0  0  0  0  0  0  0  0  0
   -4.3706   -2.6265    0.0000 H   0  0  0  0  0  0  0  0  0  0  0  0
   -3.9474   -6.2135    0.0000 H   0  0  0  0  0  0  0  0  0  0  0  0
   -4.4046   -4.4453    0.0000 H   0  0  0  0  0  0  0  0  0  0  0  0
    0.9126   -6.6025    0.0000 H   0  0  0  0  0  0  0  0  0  0  0  0
   -2.8753   -9.4088    0.0000 H   0  0  0  0  0  0  0  0  0  0  0  0
   -3.7098   -9.4795    0.0000 H   0  0  0  0  0  0  0  0  0  0  0  0
   -4.4854   -9.2467    0.0000 H   0  0  0  0  0  0  0  0  0  0  0  0
   -6.1329   -6.3241    0.0000 H   0  0  0  0  0  0  0  0  0  0  0  0
   -6.8578   -7.7652    0.0000 H   0  0  0  0  0  0  0  0  0  0  0  0
   -4.4459   -9.3948    0.0000 H   0  0  0  0  0  0  0  0  0  0  0  0
   -7.4666   -8.9332    0.0000 H   0  0  0  0  0  0  0  0  0  0  0  0
   -4.7946  -10.2972    0.0000 H   0  0  0  0  0  0  0  0  0  0  0  0
   -5.9966  -12.2099    0.0000 H   0  0  0  0  0  0  0  0  0  0  0  0
   -8.3106  -11.0286    0.0000 H   0  0  0  0  0  0  0  0  0  0  0  0
   -6.8457   -5.2867    0.0000 H   0  0  0  0  0  0  0  0  0  0  0  0
   -6.3754   -8.8414    0.0000 H   0  0  0  0  0  0  0  0  0  0  0  0
   -5.8522   -3.0989    0.0000 H   0  0  0  0  0  0  0  0  0  0  0  0
   -4.6809   -0.9571    0.0000 H   0  0  0  0  0  0  0  0  0  0  0  0
   -6.0992   -2.8485    0.0000 H   0  0  0  0  0  0  0  0  0  0  0  0
   -3.1591   -2.6102    0.0000 H   0  0  0  0  0  0  0  0  0  0  0  0
   -6.6377   -5.6346    0.0000 H   0  0  0  0  0  0  0  0  0  0  0  0
  -10.4953   -2.9212    0.0000 H   0  0  0  0  0  0  0  0  0  0  0  0
   -9.8877    0.4010    0.0000 H   0  0  0  0  0  0  0  0  0  0  0  0
  -10.9558   -1.2755    0.0000 H   0  0  0  0  0  0  0  0  0  0  0  0
   -6.7334    0.1227    0.0000 H   0  0  0  0  0  0  0  0  0  0  0  0
   -8.4458    0.8145    0.0000 H   0  0  0  0  0  0  0  0  0  0  0  0
   -4.8073   -1.3158    0.0000 H   0  0  0  0  0  0  0  0  0  0  0  0
   -5.7816   -0.5816    0.0000 H   0  0  0  0  0  0  0  0  0  0  0  0
   -6.1453   -0.5433    0.0000 H   0  0  0  0  0  0  0  0  0  0  0  0
  1  2  2  3
  2  3  1  0
  3  4  1  0
  2  5  1  0
  5  6  1  0
  6  7  1  0
  7  8  1  0
  8  9  1  0
  9 10  1  0
 10 11  1  0
 11 12  1  0
 12 13  1  0
 13 14  1  0
 14 15  1  0
 15 16  1  0
 16 17  1  0
 17 18  1  0
 18 19  1  0
 19 20  1  0
 20 21  1  0
 22 21  1  1
 17 23  1  0
 23 24  1  0
 25 24  1  6
 25 26  1  0
 26 27  1  0
 27 28  1  0
 28 29  1  0
 28 30  1  0
 30 31  1  0
 31 32  1  0
 32 33  1  0
 33 34  1  0
 31 35  1  0
 35 36  1  0
 35 37  1  0
 37 38  1  0
  5 39  1  0
 39 40  1  6
 39 41  1  0
 41 42  1  0
 42 43  1  0
 43 44  1  0
 44 45  1  1
 36  7  1  0
 44 39  1  0
 25 10  1  0
 44 41  1  0
 36 11  1  0
 27 13  1  0
 26 14  1  0
 22 16  1  0
 37 23  1  0
 22 19  1  0
 27 25  1  1
 22 20  1  0
  1 46  1  0
  1 47  1  0
  3 48  1  0
  3 49  1  0
  4 50  1  0
  4 51  1  0
  4 52  1  0
  5 53  1  1
  6 54  1  0
  6 55  1  0
  7 56  1  1
  8 57  1  0
  8 58  1  0
  9 59  1  0
  9 60  1  0
 10 61  1  6
 11 62  1  1
 13 63  1  6
 14 64  1  6
 15 65  1  0
 15 66  1  0
 16 67  1  1
 17 68  1  1
 18 69  1  0
 18 70  1  0
 19 71  1  1
 20 72  1  1
 21 73  1  0
 21 74  1  0
 23 75  1  6
 24 76  1  0
 24 77  1  0
 26 78  1  6
 28 79  1  1
 30 80  1  0
 30 81  1  0
 31 82  1  1
 32 83  1  0
 32 84  1  0
 33 85  1  0
 33 86  1  0
 34 87  1  0
 34 88  1  0
 35 89  1  1
 36 90  1  6
 37 91  1  1
 38 92  1  0
 38 93  1  0
 38 94  1  0
 40 95  1  0
 41 96  1  1
 42 97  1  0
 42 98  1  0
 43 99  1  0
 43100  1  0
 45101  1  0
 45102  1  0
 45103  1  0
M  END
$$$$
