
     RDKit          2D

105112  0  0  0  0  0  0  0  0999 V2000
   -9.7900    4.0438    0.0000 C   0  0  0  0  0  0  0  0  0  0  0  0
   -8.3212    3.7392    0.0000 C   0  0  0  0  0  0  0  0  0  0  0  0
   -7.8506    2.3149    0.0000 C   0  0  0  0  0  0  0  0  0  0  0  0
   -7.3800    0.8907    0.0000 C   0  0  0  0  0  0  0  0  0  0  0  0
   -7.3231    4.8589    0.0000 C   0  0  0  0  0  0  0  0  0  0  0  0
   -6.3249    5.9786    0.0000 C   0  0  0  0  0  0  0  0  0  0  0  0
   -5.4554    4.7563    0.0000 C   0  0  0  0  0  0  0  0  0  0  0  0
   -3.9577    4.6740    0.0000 C   0  0  0  0  0  0  0  0  0  0  0  0
   -2.6440    3.9500    0.0000 C   0  0  0  0  0  0  0  0  0  0  0  0
   -1.3302    3.2260    0.0000 C   0  0  0  0  0  0  0  0  0  0  0  0
   -0.0165    2.5021    0.0000 C   0  0  0  0  0  0  0  0  0  0  0  0
    1.2972    1.7781    0.0000 C   0  0  0  0  0  0  0  0  0  0  0  0
    2.6109    1.0541    0.0000 C   0  0  0  0  0  0  0  0  0  0  0  0
    2.0212    3.0918    0.0000 C   0  0  0  0  0  0  0  0  0  0  0  0
    2.7452    4.4055    0.0000 C   0  0  0  0  0  0  0  0  0  0  0  0
    3.4691    5.7192    0.0000 C   0  0  0  0  0  0  0  0  0  0  0  0
    4.1931    7.0330    0.0000 C   0  0  0  0  0  0  0  0  0  0  0  0
    4.9171    8.3467    0.0000 C   0  0  0  0  0  0  0  0  0  0  0  0
    5.6411    9.6604    0.0000 O   0  0  0  0  0  0  0  0  0  0  0  0
    7.1408    9.6903    0.0000 C   0  0  0  0  0  0  0  0  0  0  0  0
    8.6405    9.7201    0.0000 C   0  0  0  0  0  0  0  0  0  0  0  0
   10.1402    9.7500    0.0000 C   0  0  0  0  0  0  0  0  0  0  0  0
    8.6703    8.2204    0.0000 C   0  0  0  0  0  0  0  0  0  0  0  0
   -2.0542    1.9123    0.0000 C   0  0  0  0  0  0  0  0  0  0  0  0
   -3.4737    2.3972    0.0000 C   0  0  0  0  0  0  0  0  0  0  0  0
   -4.9552    2.1625    0.0000 C   0  0  0  0  0  0  0  0  0  0  0  0
   -5.1899    0.6810    0.0000 C   0  0  0  0  0  0  0  0  0  0  0  0
   -3.8534   -0.0000    0.0000 C   0  0  0  0  0  0  0  0  0  0  0  0
   -2.7927    1.0607    0.0000 C   0  0  0  0  0  0  0  0  0  0  0  0
   -1.7321    0.0000    0.0000 C   0  0  0  0  0  0  0  0  0  0  0  0
   -0.4330    0.7500    0.0000 C   0  0  0  0  0  0  0  0  0  0  0  0
    0.8660    0.0000    0.0000 C   0  0  0  0  0  0  0  0  0  0  0  0
   -0.4330   -0.7500    0.0000 C   0  0  0  0  0  0  0  0  0  0  0  0
   -0.3321    0.0000    0.0000 C   0  0  0  0  0  0  0  0  0  0  0  0
   -2.6962   -1.1491    0.0000 C   0  0  0  0  0  0  0  0  0  0  0  0
   -2.7927   -1.0607    0.0000 C   0  0  0  0  0  0  0  0  0  0  0  0
   -2.9595    5.7937    0.0000 C   0  0  0  0  0  0  0  0  0  0  0  0
   -3.2126    7.2722    0.0000 C   0  0  0  0  0  0  0  0  0  0  0  0
   -1.9903    8.1417    0.0000 C   0  0  0  0  0  0  0  0  0  0  0  0
   -4.5263    7.9961    0.0000 C   0  0  0  0  0  0  0  0  0  0  0  0
   -5.3958    9.2184    0.0000 C   0  0  0  0  0  0  0  0  0  0  0  0
   -5.9114    7.4204    0.0000 N   0  0  0  0  0  0  0  0  0  0  0  0
  -10.7881    2.9241    0.0000 H   0  0  0  0  0  0  0  0  0  0  0  0
  -10.2606    5.4680    0.0000 H   0  0  0  0  0  0  0  0  0  0  0  0
   -9.2749    1.8443    0.0000 H   0  0  0  0  0  0  0  0  0  0  0  0
   -6.3796    2.6084    0.0000 H   0  0  0  0  0  0  0  0  0  0  0  0
   -6.9094   -0.5336    0.0000 H   0  0  0  0  0  0  0  0  0  0  0  0
   -8.8043    0.4201    0.0000 H   0  0  0  0  0  0  0  0  0  0  0  0
   -5.9090    1.1841    0.0000 H   0  0  0  0  0  0  0  0  0  0  0  0
   -6.3334    3.7317    0.0000 H   0  0  0  0  0  0  0  0  0  0  0  0
   -8.4428    5.8570    0.0000 H   0  0  0  0  0  0  0  0  0  0  0  0
   -7.6386    6.7025    0.0000 H   0  0  0  0  0  0  0  0  0  0  0  0
   -5.2024    3.2778    0.0000 H   0  0  0  0  0  0  0  0  0  0  0  0
   -6.7600    4.0160    0.0000 H   0  0  0  0  0  0  0  0  0  0  0  0
   -4.3712    3.2321    0.0000 H   0  0  0  0  0  0  0  0  0  0  0  0
   -3.6643    2.8505    0.0000 H   0  0  0  0  0  0  0  0  0  0  0  0
   -1.7652    5.1657    0.0000 H   0  0  0  0  0  0  0  0  0  0  0  0
   -0.6063    4.5398    0.0000 H   0  0  0  0  0  0  0  0  0  0  0  0
    0.5419    3.8942    0.0000 H   0  0  0  0  0  0  0  0  0  0  0  0
   -0.2215    1.0161    0.0000 H   0  0  0  0  0  0  0  0  0  0  0  0
    0.9126    0.3282    0.0000 H   0  0  0  0  0  0  0  0  0  0  0  0
    3.9246    0.3301    0.0000 H   0  0  0  0  0  0  0  0  0  0  0  0
    3.4896    2.2698    0.0000 H   0  0  0  0  0  0  0  0  0  0  0  0
    2.0525   -0.3381    0.0000 H   0  0  0  0  0  0  0  0  0  0  0  0
    3.4133    2.5334    0.0000 H   0  0  0  0  0  0  0  0  0  0  0  0
    0.8055    3.9705    0.0000 H   0  0  0  0  0  0  0  0  0  0  0  0
    4.0589    3.6815    0.0000 H   0  0  0  0  0  0  0  0  0  0  0  0
    1.4314    5.1295    0.0000 H   0  0  0  0  0  0  0  0  0  0  0  0
    2.1554    6.4432    0.0000 H   0  0  0  0  0  0  0  0  0  0  0  0
    4.7828    4.9953    0.0000 H   0  0  0  0  0  0  0  0  0  0  0  0
    5.5068    6.3090    0.0000 H   0  0  0  0  0  0  0  0  0  0  0  0
    2.8794    7.7569    0.0000 H   0  0  0  0  0  0  0  0  0  0  0  0
    3.6034    9.0706    0.0000 H   0  0  0  0  0  0  0  0  0  0  0  0
    6.2308    7.6227    0.0000 H   0  0  0  0  0  0  0  0  0  0  0  0
    6.9876    8.1981    0.0000 H   0  0  0  0  0  0  0  0  0  0  0  0
    7.1109   11.1900    0.0000 H   0  0  0  0  0  0  0  0  0  0  0  0
    8.6106   11.2198    0.0000 H   0  0  0  0  0  0  0  0  0  0  0  0
   11.6399    9.7799    0.0000 H   0  0  0  0  0  0  0  0  0  0  0  0
   10.1103   11.2497    0.0000 H   0  0  0  0  0  0  0  0  0  0  0  0
   10.3526    8.2651    0.0000 H   0  0  0  0  0  0  0  0  0  0  0  0
    8.7002    6.7207    0.0000 H   0  0  0  0  0  0  0  0  0  0  0  0
   10.1625    8.0673    0.0000 H   0  0  0  0  0  0  0  0  0  0  0  0
    7.1855    8.0080    0.0000 H   0  0  0  0  0  0  0  0  0  0  0  0
   -0.7802    1.1206    0.0000 H   0  0  0  0  0  0  0  0  0  0  0  0
   -5.0337    3.6605    0.0000 H   0  0  0  0  0  0  0  0  0  0  0  0
   -6.4516    2.0578    0.0000 H   0  0  0  0  0  0  0  0  0  0  0  0
   -6.6817    0.5241    0.0000 H   0  0  0  0  0  0  0  0  0  0  0  0
   -5.7274   -0.7194    0.0000 H   0  0  0  0  0  0  0  0  0  0  0  0
   -4.7350   -1.2135    0.0000 H   0  0  0  0  0  0  0  0  0  0  0  0
   -4.1522    0.4267    0.0000 H   0  0  0  0  0  0  0  0  0  0  0  0
    2.0796    0.8816    0.0000 H   0  0  0  0  0  0  0  0  0  0  0  0
    1.6830   -1.2580    0.0000 H   0  0  0  0  0  0  0  0  0  0  0  0
   -2.9456    0.8816    0.0000 H   0  0  0  0  0  0  0  0  0  0  0  0
   -3.6604   -2.2981    0.0000 H   0  0  0  0  0  0  0  0  0  0  0  0
   -1.5472   -2.1132    0.0000 H   0  0  0  0  0  0  0  0  0  0  0  0
   -4.1145   -0.6608    0.0000 H   0  0  0  0  0  0  0  0  0  0  0  0
   -1.5744    6.3694    0.0000 H   0  0  0  0  0  0  0  0  0  0  0  0
   -1.9475    4.6865    0.0000 H   0  0  0  0  0  0  0  0  0  0  0  0
   -2.1322    9.6349    0.0000 H   0  0  0  0  0  0  0  0  0  0  0  0
   -0.6262    7.5179    0.0000 H   0  0  0  0  0  0  0  0  0  0  0  0
   -3.5281    9.1158    0.0000 H   0  0  0  0  0  0  0  0  0  0  0  0
   -6.2653   10.4407    0.0000 H   0  0  0  0  0  0  0  0  0  0  0  0
   -4.1735   10.0879    0.0000 H   0  0  0  0  0  0  0  0  0  0  0  0
   -6.7150    8.5044    0.0000 H   0  0  0  0  0  0  0  0  0  0  0  0
   -7.1444    8.2747    0.0000 H   0  0  0  0  0  0  0  0  0  0  0  0
  1  2  2  3
  2  3  1  0
  3  4  1  0
  2  5  1  0
  5  6  1  0
  6  7  1  0
  7  8  1  0
  8  9  1  0
  9 10  1  0
 10 11  1  0
 11 12  1  0
 12 13  1  0
 12 14  1  0
 14 15  1  0
 15 16  1  0
 16 17  1  0
 17 18  1  0
 18 19  1  0
 19 20  1  0
 20 21  1  0
 21 22  1  0
 21 23  1  0
 10 24  1  0
 24 25  1  0
 25 26  1  0
 26 27  1  0
 27 28  1  0
 28 29  1  0
 29 30  1  0
 30 31  1  0
 31 32  1  0
 32 33  1  0
 33 34  1  0
 34 35  1  0
 30 36  1  0
  8 37  1  0
 37 38  1  0
 38 39  2  3
 38 40  1  0
 40 41  1  0
 40 42  1  0
 42  6  1  0
 36 24  1  0
 29 25  1  0
 33 30  1  0
 36 25  1  0
 36 28  1  0
 33 31  1  0
 34 31  1  0
  1 43  1  0
  1 44  1  0
  3 45  1  0
  3 46  1  0
  4 47  1  0
  4 48  1  0
  4 49  1  0
  5 50  1  0
  5 51  1  0
  6 52  1  0
  7 53  1  0
  7 54  1  0
  8 55  1  0
  9 56  1  0
  9 57  1  0
 10 58  1  0
 11 59  1  0
 11 60  1  0
 12 61  1  0
 13 62  1  0
 13 63  1  0
 13 64  1  0
 14 65  1  0
 14 66  1  0
 15 67  1  0
 15 68  1  0
 16 69  1  0
 16 70  1  0
 17 71  1  0
 17 72  1  0
 18 73  1  0
 18 74  1  0
 20 75  1  0
 20 76  1  0
 21 77  1  0
 22 78  1  0
 22 79  1  0
 22 80  1  0
 23 81  1  0
 23 82  1  0
 23 83  1  0
 24 84  1  0
 26 85  1  0
 26 86  1  0
 27 87  1  0
 27 88  1  0
 28 89  1  0
 29 90  1  0
 32 91  1  0
 32 92  1  0
 34 93  1  0
 35 94  1  0
 35 95  1  0
 35 96  1  0
 37 97  1  0
 37 98  1  0
 39 99  1  0
 39100  1  0
 40101  1  0
 41102  1  0
 41103  1  0
 41104  1  0
 42105  1  0
M  END
$$$$
