
     RDKit          2D

 59 66  0  0  0  0  0  0  0  0999 V2000
   -3.6172   -8.5069    0.0000 C   0  0  0  0  0  0  0  0  0  0  0  0
   -2.2077   -7.9939    0.0000 C   0  0  0  0  0  0  0  0  0  0  0  0
   -2.4681   -6.5167    0.0000 C   0  0  0  0  0  0  0  0  0  0  0  0
   -2.2077   -5.0395    0.0000 C   0  0  0  0  0  0  0  0  0  0  0  0
   -2.4681   -3.5623    0.0000 C   0  0  0  0  0  0  0  0  0  0  0  0
   -3.6172   -4.5264    0.0000 C   0  0  0  0  0  0  0  0  0  0  0  0
   -4.7663   -3.5623    0.0000 C   0  0  0  0  0  0  0  0  0  0  0  0
   -4.3672   -5.8255    0.0000 C   0  0  0  0  0  0  0  0  0  0  0  0
   -1.0586   -7.0297    0.0000 C   0  0  0  0  0  0  0  0  0  0  0  0
    0.3509   -7.5427    0.0000 O   0  0  0  0  0  0  0  0  0  0  0  0
    0.0905   -6.0655    0.0000 C   0  0  0  0  0  0  0  0  0  0  0  0
    1.5000   -5.5525    0.0000 O   0  0  0  0  0  0  0  0  0  0  0  0
    1.7605   -4.0753    0.0000 C   0  0  0  0  0  0  0  0  0  0  0  0
    3.2605   -4.0753    0.0000 C   0  0  0  0  0  0  0  0  0  0  0  0
    4.6700   -4.5883    0.0000 C   0  0  0  0  0  0  0  0  0  0  0  0
    3.5209   -5.5525    0.0000 C   0  0  0  0  0  0  0  0  0  0  0  0
    4.2709   -6.8515    0.0000 C   0  0  0  0  0  0  0  0  0  0  0  0
    5.7709   -6.8515    0.0000 C   0  0  0  0  0  0  0  0  0  0  0  0
    5.0209   -8.1506    0.0000 C   0  0  0  0  0  0  0  0  0  0  0  0
    3.5209   -8.1506    0.0000 C   0  0  0  0  0  0  0  0  0  0  0  0
    0.3509   -3.5623    0.0000 C   0  0  0  0  0  0  0  0  0  0  0  0
    1.5000   -2.5981    0.0000 C   0  0  0  0  0  0  0  0  0  0  0  0
    0.7500   -1.2990    0.0000 C   0  0  0  0  0  0  0  0  0  0  0  0
    1.5000    0.0000    0.0000 C   0  0  0  0  0  0  0  0  0  0  0  0
    0.7500    1.2990    0.0000 C   0  0  0  0  0  0  0  0  0  0  0  0
   -0.7500    1.2990    0.0000 N   0  0  0  0  0  0  0  0  0  0  0  0
   -1.5000    0.0000    0.0000 C   0  0  0  0  0  0  0  0  0  0  0  0
   -0.7500   -1.2990    0.0000 C   0  0  0  0  0  0  0  0  0  0  0  0
   -5.0268   -9.0200    0.0000 H   0  0  0  0  0  0  0  0  0  0  0  0
   -4.0640   -7.6301    0.0000 H   0  0  0  0  0  0  0  0  0  0  0  0
   -3.1042   -9.9165    0.0000 H   0  0  0  0  0  0  0  0  0  0  0  0
   -1.4577   -9.2929    0.0000 H   0  0  0  0  0  0  0  0  0  0  0  0
   -3.2653   -6.5167    0.0000 H   0  0  0  0  0  0  0  0  0  0  0  0
   -0.7077   -5.0395    0.0000 H   0  0  0  0  0  0  0  0  0  0  0  0
   -1.0586   -3.0492    0.0000 H   0  0  0  0  0  0  0  0  0  0  0  0
   -2.9956   -2.3196    0.0000 H   0  0  0  0  0  0  0  0  0  0  0  0
   -5.9153   -2.5981    0.0000 H   0  0  0  0  0  0  0  0  0  0  0  0
   -5.6549   -4.3909    0.0000 H   0  0  0  0  0  0  0  0  0  0  0  0
   -4.0310   -2.4300    0.0000 H   0  0  0  0  0  0  0  0  0  0  0  0
   -5.1172   -7.1245    0.0000 H   0  0  0  0  0  0  0  0  0  0  0  0
   -5.4856   -5.3508    0.0000 H   0  0  0  0  0  0  0  0  0  0  0  0
   -3.8656   -6.4450    0.0000 H   0  0  0  0  0  0  0  0  0  0  0  0
   -0.6595   -4.7665    0.0000 H   0  0  0  0  0  0  0  0  0  0  0  0
    3.6991   -2.6408    0.0000 H   0  0  0  0  0  0  0  0  0  0  0  0
    5.4200   -3.2893    0.0000 H   0  0  0  0  0  0  0  0  0  0  0  0
    5.9280   -5.4052    0.0000 H   0  0  0  0  0  0  0  0  0  0  0  0
    2.2774   -6.3914    0.0000 H   0  0  0  0  0  0  0  0  0  0  0  0
    6.2095   -5.4171    0.0000 H   0  0  0  0  0  0  0  0  0  0  0  0
    7.1805   -7.3646    0.0000 H   0  0  0  0  0  0  0  0  0  0  0  0
    5.7709   -9.4496    0.0000 H   0  0  0  0  0  0  0  0  0  0  0  0
    3.2605   -9.6278    0.0000 H   0  0  0  0  0  0  0  0  0  0  0  0
    2.1114   -7.6375    0.0000 H   0  0  0  0  0  0  0  0  0  0  0  0
   -0.3991   -4.8613    0.0000 H   0  0  0  0  0  0  0  0  0  0  0  0
   -0.7981   -2.5981    0.0000 H   0  0  0  0  0  0  0  0  0  0  0  0
    2.8365   -1.9171    0.0000 H   0  0  0  0  0  0  0  0  0  0  0  0
    3.0000    0.0000    0.0000 H   0  0  0  0  0  0  0  0  0  0  0  0
    1.5000    2.5981    0.0000 H   0  0  0  0  0  0  0  0  0  0  0  0
   -3.0000    0.0000    0.0000 H   0  0  0  0  0  0  0  0  0  0  0  0
   -1.5000   -2.5981    0.0000 H   0  0  0  0  0  0  0  0  0  0  0  0
  1  2  1  0
  2  3  1  0
  3  4  1  0
  4  5  1  0
  5  6  1  0
  6  7  1  0
  6  8  1  0
  3  9  1  0
  9 10  1  0
 10 11  1  0
 11 12  1  0
 12 13  1  0
 13 14  1  0
 14 15  1  0
 15 16  1  0
 16 17  1  0
 17 18  1  0
 18 19  1  0
 19 20  1  0
 13 21  1  0
 21 22  1  0
 22 23  1  0
 23 24  2  0
 24 25  1  0
 25 26  2  0
 26 27  1  0
 27 28  2  0
  9  2  1  0
 22 13  1  0
 28 23  1  0
  6  4  1  0
 11  9  1  0
 16 14  1  0
 19 17  1  0
 20 17  1  0
  1 29  1  0
  1 30  1  0
  1 31  1  0
  2 32  1  0
  3 33  1  0
  4 34  1  0
  5 35  1  0
  5 36  1  0
  7 37  1  0
  7 38  1  0
  7 39  1  0
  8 40  1  0
  8 41  1  0
  8 42  1  0
 11 43  1  0
 14 44  1  0
 15 45  1  0
 15 46  1  0
 16 47  1  0
 18 48  1  0
 18 49  1  0
 19 50  1  0
 20 51  1  0
 20 52  1  0
 21 53  1  0
 21 54  1  0
 22 55  1  0
 24 56  1  0
 25 57  1  0
 27 58  1  0
 28 59  1  0
M  END
$$$$
