
     RDKit          2D

 26 27  0  0  0  0  0  0  0  0999 V2000
    2.7944    2.2981    0.0000 C   0  0  0  0  0  0  0  0  0  0  0  0
    1.8302    1.1491    0.0000 C   0  0  0  0  0  0  0  0  0  0  0  0
    2.9793    0.1849    0.0000 F   0  0  0  0  0  0  0  0  0  0  0  0
    0.8660    0.0000    0.0000 C   0  0  0  0  0  0  0  0  0  0  0  0
   -0.4330    0.7500    0.0000 C   0  0  0  0  0  0  0  0  0  0  0  0
   -0.4330   -0.7500    0.0000 C   0  0  0  0  0  0  0  0  0  0  0  0
    0.0800   -2.1595    0.0000 C   0  0  0  0  0  0  0  0  0  0  0  0
    0.5930   -3.5691    0.0000 C   0  0  0  0  0  0  0  0  0  0  0  0
    0.5930   -5.0691    0.0000 C   0  0  0  0  0  0  0  0  0  0  0  0
   -0.7060   -4.3191    0.0000 C   0  0  0  0  0  0  0  0  0  0  0  0
   -1.6702   -5.4681    0.0000 O   0  0  0  0  0  0  0  0  0  0  0  0
    3.7586    3.4472    0.0000 H   0  0  0  0  0  0  0  0  0  0  0  0
    1.6453    3.2623    0.0000 H   0  0  0  0  0  0  0  0  0  0  0  0
    3.9435    1.3340    0.0000 H   0  0  0  0  0  0  0  0  0  0  0  0
    0.9095    2.1364    0.0000 H   0  0  0  0  0  0  0  0  0  0  0  0
    1.8534   -0.9207    0.0000 H   0  0  0  0  0  0  0  0  0  0  0  0
   -1.9102    1.0105    0.0000 H   0  0  0  0  0  0  0  0  0  0  0  0
   -0.1294    2.0654    0.0000 H   0  0  0  0  0  0  0  0  0  0  0  0
   -1.9102   -1.0105    0.0000 H   0  0  0  0  0  0  0  0  0  0  0  0
   -1.2354   -2.4632    0.0000 H   0  0  0  0  0  0  0  0  0  0  0  0
    1.3954   -1.8559    0.0000 H   0  0  0  0  0  0  0  0  0  0  0  0
    2.0703   -3.3086    0.0000 H   0  0  0  0  0  0  0  0  0  0  0  0
    2.0703   -5.3296    0.0000 H   0  0  0  0  0  0  0  0  0  0  0  0
    0.0800   -6.4786    0.0000 H   0  0  0  0  0  0  0  0  0  0  0  0
   -1.6933   -3.3984    0.0000 H   0  0  0  0  0  0  0  0  0  0  0  0
   -3.1474   -5.2077    0.0000 H   0  0  0  0  0  0  0  0  0  0  0  0
  1  2  1  0
  2  3  1  0
  2  4  1  0
  4  5  1  0
  5  6  1  0
  6  7  1  0
  7  8  1  0
  8  9  1  0
  9 10  1  0
 10 11  1  0
  6  4  1  0
 10  8  1  0
  1 12  1  0
  1 13  1  0
  1 14  1  0
  2 15  1  6
  4 16  1  6
  5 17  1  0
  5 18  1  0
  6 19  1  1
  7 20  1  0
  7 21  1  0
  8 22  1  1
  9 23  1  0
  9 24  1  0
 10 25  1  6
 11 26  1  0
M  END
$$$$
