
     RDKit          2D

 52 54  0  0  0  0  0  0  0  0999 V2000
   11.2998   -8.7576    0.0000 C   0  0  0  0  0  0  0  0  0  0  0  0
    9.8509   -9.1459    0.0000 C   0  0  0  0  0  0  0  0  0  0  0  0
    8.7902   -8.0852    0.0000 C   0  0  0  0  0  0  0  0  0  0  0  0
    7.7296   -7.0245    0.0000 C   0  0  0  0  0  0  0  0  0  0  0  0
    6.6689   -5.9639    0.0000 C   0  0  0  0  0  0  0  0  0  0  0  0
    5.6082   -4.9032    0.0000 C   0  0  0  0  0  0  0  0  0  0  0  0
    4.5476   -3.8426    0.0000 C   0  0  0  0  0  0  0  0  0  0  0  0
    3.4869   -2.7819    0.0000 C   0  0  0  0  0  0  0  0  0  0  0  0
    4.3473   -1.5532    0.0000 N   0  0  0  0  0  0  0  0  0  0  0  0
    2.8530   -1.4224    0.0000 C   0  0  0  0  0  0  0  0  0  0  0  0
    1.4041   -1.8107    0.0000 C   0  0  0  0  0  0  0  0  0  0  0  0
   -0.0448   -2.1989    0.0000 C   0  0  0  0  0  0  0  0  0  0  0  0
   -1.4937   -2.5871    0.0000 C   0  0  0  0  0  0  0  0  0  0  0  0
   -2.9426   -2.9753    0.0000 C   0  0  0  0  0  0  0  0  0  0  0  0
   -0.4330   -0.7500    0.0000 C   0  0  0  0  0  0  0  0  0  0  0  0
   -1.9330   -0.7500    0.0000 C   0  0  0  0  0  0  0  0  0  0  0  0
   -1.9330    0.7500    0.0000 C   0  0  0  0  0  0  0  0  0  0  0  0
   -1.9330    2.2500    0.0000 O   0  0  0  0  0  0  0  0  0  0  0  0
   -3.2321    3.0000    0.0000 C   0  0  0  0  0  0  0  0  0  0  0  0
   -0.4330    0.7500    0.0000 C   0  0  0  0  0  0  0  0  0  0  0  0
    0.8660   -0.0000    0.0000 O   0  0  0  0  0  0  0  0  0  0  0  0
   12.3604   -9.8183    0.0000 H   0  0  0  0  0  0  0  0  0  0  0  0
   11.6880   -7.3087    0.0000 H   0  0  0  0  0  0  0  0  0  0  0  0
    9.4627  -10.5947    0.0000 H   0  0  0  0  0  0  0  0  0  0  0  0
    9.8509   -7.0245    0.0000 H   0  0  0  0  0  0  0  0  0  0  0  0
    7.7296   -9.1459    0.0000 H   0  0  0  0  0  0  0  0  0  0  0  0
    6.6689   -8.0852    0.0000 H   0  0  0  0  0  0  0  0  0  0  0  0
    8.7902   -5.9639    0.0000 H   0  0  0  0  0  0  0  0  0  0  0  0
    7.7296   -4.9032    0.0000 H   0  0  0  0  0  0  0  0  0  0  0  0
    5.6082   -7.0245    0.0000 H   0  0  0  0  0  0  0  0  0  0  0  0
    4.5476   -5.9639    0.0000 H   0  0  0  0  0  0  0  0  0  0  0  0
    6.6689   -3.8426    0.0000 H   0  0  0  0  0  0  0  0  0  0  0  0
    5.6082   -2.7819    0.0000 H   0  0  0  0  0  0  0  0  0  0  0  0
    3.4869   -4.9032    0.0000 H   0  0  0  0  0  0  0  0  0  0  0  0
    2.4837   -3.6852    0.0000 H   0  0  0  0  0  0  0  0  0  0  0  0
    5.7067   -0.9192    0.0000 H   0  0  0  0  0  0  0  0  0  0  0  0
    2.7223    0.0719    0.0000 H   0  0  0  0  0  0  0  0  0  0  0  0
    1.3870   -0.8267    0.0000 H   0  0  0  0  0  0  0  0  0  0  0  0
    1.5920   -3.1475    0.0000 H   0  0  0  0  0  0  0  0  0  0  0  0
    0.3434   -3.6478    0.0000 H   0  0  0  0  0  0  0  0  0  0  0  0
   -1.1054   -4.0360    0.0000 H   0  0  0  0  0  0  0  0  0  0  0  0
   -1.8802   -1.8899    0.0000 H   0  0  0  0  0  0  0  0  0  0  0  0
   -4.3915   -3.3636    0.0000 H   0  0  0  0  0  0  0  0  0  0  0  0
   -2.5543   -4.4242    0.0000 H   0  0  0  0  0  0  0  0  0  0  0  0
   -3.5045   -1.5846    0.0000 H   0  0  0  0  0  0  0  0  0  0  0  0
   -3.4218   -0.5672    0.0000 H   0  0  0  0  0  0  0  0  0  0  0  0
   -2.1976   -1.8110    0.0000 H   0  0  0  0  0  0  0  0  0  0  0  0
   -3.4330    0.7500    0.0000 H   0  0  0  0  0  0  0  0  0  0  0  0
   -4.5311    3.7500    0.0000 H   0  0  0  0  0  0  0  0  0  0  0  0
   -2.4821    4.2990    0.0000 H   0  0  0  0  0  0  0  0  0  0  0  0
   -3.9821    1.7010    0.0000 H   0  0  0  0  0  0  0  0  0  0  0  0
   -0.0448    2.1989    0.0000 H   0  0  0  0  0  0  0  0  0  0  0  0
  1  2  2  3
  2  3  1  0
  3  4  1  0
  4  5  1  0
  5  6  1  0
  6  7  1  0
  7  8  1  0
  8  9  1  0
  9 10  1  0
 10 11  1  0
 11 12  1  0
 12 13  1  0
 13 14  1  0
 12 15  1  0
 15 16  1  0
 16 17  1  0
 17 18  1  0
 18 19  1  0
 17 20  1  0
 20 21  1  0
 10  8  1  0
 20 15  1  0
 15 21  1  6
  1 22  1  0
  1 23  1  0
  2 24  1  0
  3 25  1  0
  3 26  1  0
  4 27  1  0
  4 28  1  0
  5 29  1  0
  5 30  1  0
  6 31  1  0
  6 32  1  0
  7 33  1  0
  7 34  1  0
  8 35  1  1
  9 36  1  0
 10 37  1  6
 11 38  1  0
 11 39  1  0
 12 40  1  6
 13 41  1  0
 13 42  1  0
 14 43  1  0
 14 44  1  0
 14 45  1  0
 16 46  1  0
 16 47  1  0
 17 48  1  1
 19 49  1  0
 19 50  1  0
 19 51  1  0
 20 52  1  1
M  END
$$$$
