
     RDKit          2D

 48 50  0  0  0  0  0  0  0  0999 V2000
   -1.5000   -2.5607    0.0000 C   0  0  0  0  0  0  0  0  0  0  0  0
   -0.0000   -2.5607    0.0000 C   0  0  0  0  0  0  0  0  0  0  0  0
    1.5000   -2.5607    0.0000 C   0  0  0  0  0  0  0  0  0  0  0  0
    3.0000   -2.5607    0.0000 C   0  0  0  0  0  0  0  0  0  0  0  0
    4.4095   -3.0737    0.0000 C   0  0  0  0  0  0  0  0  0  0  0  0
    3.2605   -4.0379    0.0000 C   0  0  0  0  0  0  0  0  0  0  0  0
   -0.0000   -1.0607    0.0000 N   0  0  0  0  0  0  0  0  0  0  0  0
    1.0607    0.0000    0.0000 C   0  0  0  0  0  0  0  0  0  0  0  0
    0.0000    1.0607    0.0000 C   0  0  0  0  0  0  0  0  0  0  0  0
   -0.6810    2.3972    0.0000 C   0  0  0  0  0  0  0  0  0  0  0  0
   -2.1625    2.1625    0.0000 C   0  0  0  0  0  0  0  0  0  0  0  0
   -2.2410    3.6605    0.0000 C   0  0  0  0  0  0  0  0  0  0  0  0
   -2.3195    5.1584    0.0000 N   0  0  0  0  0  0  0  0  0  0  0  0
   -1.0615    5.9754    0.0000 C   0  0  0  0  0  0  0  0  0  0  0  0
    0.1965    6.7923    0.0000 N   0  0  0  0  0  0  0  0  0  0  0  0
    1.5330    6.1113    0.0000 C   0  0  0  0  0  0  0  0  0  0  0  0
    2.8695    5.4304    0.0000 O   0  0  0  0  0  0  0  0  0  0  0  0
   -2.3972    0.6810    0.0000 C   0  0  0  0  0  0  0  0  0  0  0  0
   -1.0607    0.0000    0.0000 C   0  0  0  0  0  0  0  0  0  0  0  0
   -3.0000   -2.5607    0.0000 H   0  0  0  0  0  0  0  0  0  0  0  0
   -1.5000   -4.0607    0.0000 H   0  0  0  0  0  0  0  0  0  0  0  0
   -1.6828   -1.0718    0.0000 H   0  0  0  0  0  0  0  0  0  0  0  0
   -0.0000   -4.0607    0.0000 H   0  0  0  0  0  0  0  0  0  0  0  0
    1.3354   -3.9006    0.0000 H   0  0  0  0  0  0  0  0  0  0  0  0
    1.6200   -1.5838    0.0000 H   0  0  0  0  0  0  0  0  0  0  0  0
    3.2605   -1.0834    0.0000 H   0  0  0  0  0  0  0  0  0  0  0  0
    5.1595   -1.7747    0.0000 H   0  0  0  0  0  0  0  0  0  0  0  0
    5.5586   -4.0379    0.0000 H   0  0  0  0  0  0  0  0  0  0  0  0
    4.0105   -5.3369    0.0000 H   0  0  0  0  0  0  0  0  0  0  0  0
    2.0576   -4.6508    0.0000 H   0  0  0  0  0  0  0  0  0  0  0  0
    2.1213    1.0607    0.0000 H   0  0  0  0  0  0  0  0  0  0  0  0
    1.8362   -0.6059    0.0000 H   0  0  0  0  0  0  0  0  0  0  0  0
    1.2135    1.9423    0.0000 H   0  0  0  0  0  0  0  0  0  0  0  0
    0.7194    2.9347    0.0000 H   0  0  0  0  0  0  0  0  0  0  0  0
   -0.7919    3.1866    0.0000 H   0  0  0  0  0  0  0  0  0  0  0  0
   -3.6605    2.2410    0.0000 H   0  0  0  0  0  0  0  0  0  0  0  0
   -3.7390    3.5820    0.0000 H   0  0  0  0  0  0  0  0  0  0  0  0
   -1.4560    3.7989    0.0000 H   0  0  0  0  0  0  0  0  0  0  0  0
   -3.6560    5.8394    0.0000 H   0  0  0  0  0  0  0  0  0  0  0  0
   -1.8785    7.2334    0.0000 H   0  0  0  0  0  0  0  0  0  0  0  0
   -0.2446    4.7174    0.0000 H   0  0  0  0  0  0  0  0  0  0  0  0
    0.1180    8.2903    0.0000 H   0  0  0  0  0  0  0  0  0  0  0  0
    2.2140    7.4478    0.0000 H   0  0  0  0  0  0  0  0  0  0  0  0
    0.8520    4.7748    0.0000 H   0  0  0  0  0  0  0  0  0  0  0  0
    4.1275    6.2473    0.0000 H   0  0  0  0  0  0  0  0  0  0  0  0
   -3.8461    1.0692    0.0000 H   0  0  0  0  0  0  0  0  0  0  0  0
   -2.9347   -0.7194    0.0000 H   0  0  0  0  0  0  0  0  0  0  0  0
   -2.0837   -1.0970    0.0000 H   0  0  0  0  0  0  0  0  0  0  0  0
  1  2  1  0
  2  3  1  0
  3  4  1  0
  4  5  1  0
  5  6  1  0
  2  7  1  0
  7  8  1  0
  8  9  1  0
  9 10  1  0
 10 11  1  0
 11 12  1  0
 12 13  1  0
 13 14  1  0
 14 15  1  0
 15 16  1  0
 16 17  1  0
 11 18  1  0
 18 19  1  0
  6  4  1  0
 19  7  1  0
 19  9  1  0
  1 20  1  0
  1 21  1  0
  1 22  1  0
  2 23  1  0
  3 24  1  0
  3 25  1  0
  4 26  1  0
  5 27  1  0
  5 28  1  0
  6 29  1  0
  6 30  1  0
  8 31  1  0
  8 32  1  0
  9 33  1  0
 10 34  1  0
 10 35  1  0
 11 36  1  0
 12 37  1  0
 12 38  1  0
 13 39  1  0
 14 40  1  0
 14 41  1  0
 15 42  1  0
 16 43  1  0
 16 44  1  0
 17 45  1  0
 18 46  1  0
 18 47  1  0
 19 48  1  0
M  END
$$$$
