
     RDKit          2D

 42 44  0  0  0  0  0  0  0  0999 V2000
    3.1820    2.1213    0.0000 C   0  0  0  0  0  0  0  0  0  0  0  0
    2.1213    1.0607    0.0000 C   0  0  0  0  0  0  0  0  0  0  0  0
    1.0607   -0.0000    0.0000 C   0  0  0  0  0  0  0  0  0  0  0  0
    0.0000   -1.0607    0.0000 C   0  0  0  0  0  0  0  0  0  0  0  0
   -1.0607   -0.0000    0.0000 C   0  0  0  0  0  0  0  0  0  0  0  0
   -2.1213   -1.0607    0.0000 N   0  0  0  0  0  0  0  0  0  0  0  0
   -3.5702   -0.6724    0.0000 C   0  0  0  0  0  0  0  0  0  0  0  0
   -4.2041   -2.0319    0.0000 C   0  0  0  0  0  0  0  0  0  0  0  0
   -5.6984   -2.1626    0.0000 C   0  0  0  0  0  0  0  0  0  0  0  0
   -5.8292   -3.6569    0.0000 C   0  0  0  0  0  0  0  0  0  0  0  0
   -5.9599   -5.1512    0.0000 C   0  0  0  0  0  0  0  0  0  0  0  0
   -7.3235   -3.5262    0.0000 C   0  0  0  0  0  0  0  0  0  0  0  0
   -8.8177   -3.3955    0.0000 C   0  0  0  0  0  0  0  0  0  0  0  0
  -10.3120   -3.2647    0.0000 C   0  0  0  0  0  0  0  0  0  0  0  0
  -11.1724   -4.4934    0.0000 N   0  0  0  0  0  0  0  0  0  0  0  0
   -5.0645   -0.8032    0.0000 C   0  0  0  0  0  0  0  0  0  0  0  0
    0.0000    1.0607    0.0000 N   0  0  0  0  0  0  0  0  0  0  0  0
    4.2426    3.1820    0.0000 H   0  0  0  0  0  0  0  0  0  0  0  0
    4.2426    1.0607    0.0000 H   0  0  0  0  0  0  0  0  0  0  0  0
    2.1213    3.1820    0.0000 H   0  0  0  0  0  0  0  0  0  0  0  0
    1.0607    2.1213    0.0000 H   0  0  0  0  0  0  0  0  0  0  0  0
    3.1820   -0.0000    0.0000 H   0  0  0  0  0  0  0  0  0  0  0  0
    2.1213   -1.0607    0.0000 H   0  0  0  0  0  0  0  0  0  0  0  0
    1.0607   -2.1213    0.0000 H   0  0  0  0  0  0  0  0  0  0  0  0
   -0.9235   -2.2427    0.0000 H   0  0  0  0  0  0  0  0  0  0  0  0
   -2.1213    1.0607    0.0000 H   0  0  0  0  0  0  0  0  0  0  0  0
   -1.9126   -2.5461    0.0000 H   0  0  0  0  0  0  0  0  0  0  0  0
   -3.4395    0.8219    0.0000 H   0  0  0  0  0  0  0  0  0  0  0  0
   -3.3438   -3.2606    0.0000 H   0  0  0  0  0  0  0  0  0  0  0  0
   -6.7123   -1.7530    0.0000 H   0  0  0  0  0  0  0  0  0  0  0  0
   -4.3349   -3.7877    0.0000 H   0  0  0  0  0  0  0  0  0  0  0  0
   -6.0906   -6.6455    0.0000 H   0  0  0  0  0  0  0  0  0  0  0  0
   -6.8451   -5.1821    0.0000 H   0  0  0  0  0  0  0  0  0  0  0  0
   -4.4656   -5.2819    0.0000 H   0  0  0  0  0  0  0  0  0  0  0  0
   -7.5076   -4.3926    0.0000 H   0  0  0  0  0  0  0  0  0  0  0  0
   -7.3616   -2.4334    0.0000 H   0  0  0  0  0  0  0  0  0  0  0  0
   -8.9485   -4.8897    0.0000 H   0  0  0  0  0  0  0  0  0  0  0  0
   -8.6870   -1.9012    0.0000 H   0  0  0  0  0  0  0  0  0  0  0  0
  -10.9460   -1.9053    0.0000 H   0  0  0  0  0  0  0  0  0  0  0  0
  -12.6667   -4.3627    0.0000 H   0  0  0  0  0  0  0  0  0  0  0  0
   -5.9249    0.4256    0.0000 H   0  0  0  0  0  0  0  0  0  0  0  0
    0.0000    2.5607    0.0000 H   0  0  0  0  0  0  0  0  0  0  0  0
  1  2  1  0
  2  3  1  0
  3  4  1  0
  4  5  1  0
  5  6  1  0
  6  7  1  0
  7  8  1  0
  8  9  1  0
  9 10  1  0
 10 11  1  0
 10 12  1  0
 12 13  1  0
 13 14  1  0
 14 15  2  3
  9 16  1  0
  5 17  1  0
 17  3  1  0
 16  7  1  0
 16  8  1  0
  1 18  1  0
  1 19  1  0
  1 20  1  0
  2 21  1  0
  2 22  1  0
  3 23  1  0
  4 24  1  0
  4 25  1  0
  5 26  1  0
  6 27  1  0
  7 28  1  0
  8 29  1  0
  9 30  1  0
 10 31  1  0
 11 32  1  0
 11 33  1  0
 11 34  1  0
 12 35  1  0
 12 36  1  0
 13 37  1  0
 13 38  1  0
 14 39  1  0
 15 40  1  0
 16 41  1  0
 17 42  1  0
M  END
$$$$
