
     RDKit          2D

 25 27  0  0  0  0  0  0  0  0999 V2000
   -4.9330   -0.7500    0.0000 C   0  0  0  0  0  0  0  0  0  0  0  0
   -3.4330   -0.7500    0.0000 S   0  0  0  0  0  4  0  0  0  0  0  0
   -3.4330    0.7500    0.0000 O   0  0  0  0  0  0  0  0  0  0  0  0
   -4.7321    1.5000    0.0000 C   0  0  0  0  0  0  0  0  0  0  0  0
   -5.6962    2.6491    0.0000 C   0  0  0  0  0  0  0  0  0  0  0  0
   -4.2190    2.9095    0.0000 N   0  0  0  0  0  0  0  0  0  0  0  0
   -1.9330   -0.7500    0.0000 C   0  0  0  0  0  0  0  0  0  0  0  0
   -1.9330    0.7500    0.0000 C   0  0  0  0  0  0  0  0  0  0  0  0
   -0.4330    0.7500    0.0000 C   0  0  0  0  0  0  0  0  0  0  0  0
    0.8660    0.0000    0.0000 O   0  0  0  0  0  0  0  0  0  0  0  0
   -0.4330   -0.7500    0.0000 C   0  0  0  0  0  0  0  0  0  0  0  0
   -0.0448   -2.1989    0.0000 O   0  0  0  0  0  0  0  0  0  0  0  0
   -6.4330   -0.7500    0.0000 H   0  0  0  0  0  0  0  0  0  0  0  0
   -5.2188   -0.0058    0.0000 H   0  0  0  0  0  0  0  0  0  0  0  0
   -4.9330   -2.2500    0.0000 H   0  0  0  0  0  0  0  0  0  0  0  0
   -3.4330   -2.2500    0.0000 H   0  0  0  0  0  0  0  0  0  0  0  0
   -5.3151    0.9564    0.0000 H   0  0  0  0  0  0  0  0  0  0  0  0
   -6.9953    1.8991    0.0000 H   0  0  0  0  0  0  0  0  0  0  0  0
   -6.2093    4.0586    0.0000 H   0  0  0  0  0  0  0  0  0  0  0  0
   -3.0700    3.8737    0.0000 H   0  0  0  0  0  0  0  0  0  0  0  0
   -1.9330   -2.2500    0.0000 H   0  0  0  0  0  0  0  0  0  0  0  0
   -1.9330    2.2500    0.0000 H   0  0  0  0  0  0  0  0  0  0  0  0
   -3.3884    1.1130    0.0000 H   0  0  0  0  0  0  0  0  0  0  0  0
   -0.0448    2.1989    0.0000 H   0  0  0  0  0  0  0  0  0  0  0  0
    1.4041   -2.5871    0.0000 H   0  0  0  0  0  0  0  0  0  0  0  0
  1  2  1  0
  2  3  1  0
  3  4  1  0
  4  5  1  0
  5  6  1  0
  2  7  1  0
  7  8  1  0
  8  9  1  0
  9 10  1  0
 10 11  1  0
 11 12  1  0
  6  4  1  0
 11  7  1  0
 11  9  1  0
  1 13  1  0
  1 14  1  0
  1 15  1  0
  2 16  1  0
  4 17  1  0
  5 18  1  0
  5 19  1  0
  6 20  1  0
  7 21  1  0
  8 22  1  0
  8 23  1  0
  9 24  1  0
 12 25  1  0
M  END
$$$$
