
     RDKit          2D

 65 66  0  0  0  0  0  0  0  0999 V2000
    3.3074    0.8886    0.0000 C   0  0  0  0  0  0  0  0  0  0  0  0
    1.8302    1.1491    0.0000 C   0  0  0  0  0  0  0  0  0  0  0  0
    1.3172    2.5586    0.0000 C   0  0  0  0  0  0  0  0  0  0  0  0
    0.8041    3.9681    0.0000 C   0  0  0  0  0  0  0  0  0  0  0  0
    2.7267    3.0716    0.0000 C   0  0  0  0  0  0  0  0  0  0  0  0
    4.1363    3.5847    0.0000 O   0  0  0  0  0  0  0  0  0  0  0  0
    4.3967    5.0619    0.0000 C   0  0  0  0  0  0  0  0  0  0  0  0
    4.6572    6.5391    0.0000 C   0  0  0  0  0  0  0  0  0  0  0  0
    4.9177    8.0163    0.0000 C   0  0  0  0  0  0  0  0  0  0  0  0
    5.1781    9.4935    0.0000 C   0  0  0  0  0  0  0  0  0  0  0  0
    5.4386   10.9707    0.0000 C   0  0  0  0  0  0  0  0  0  0  0  0
    5.6991   12.4479    0.0000 C   0  0  0  0  0  0  0  0  0  0  0  0
    0.8660    0.0000    0.0000 C   0  0  0  0  0  0  0  0  0  0  0  0
   -0.4330    0.7500    0.0000 C   0  0  0  0  0  0  0  0  0  0  0  0
   -1.7321    1.5000    0.0000 C   0  0  0  0  0  0  0  0  0  0  0  0
   -2.6962    2.6491    0.0000 C   0  0  0  0  0  0  0  0  0  0  0  0
   -3.6604    3.7981    0.0000 C   0  0  0  0  0  0  0  0  0  0  0  0
   -4.6246    4.9472    0.0000 C   0  0  0  0  0  0  0  0  0  0  0  0
   -5.5888    6.0963    0.0000 C   0  0  0  0  0  0  0  0  0  0  0  0
   -3.0311    0.7500    0.0000 C   0  0  0  0  0  0  0  0  0  0  0  0
   -3.0311   -0.7500    0.0000 As  0  0  0  0  0  3  0  0  0  0  0  0
   -1.7321   -1.5000    0.0000 C   0  0  0  0  0  0  0  0  0  0  0  0
   -0.7679   -2.6491    0.0000 C   0  0  0  0  0  0  0  0  0  0  0  0
   -0.4330   -0.7500    0.0000 C   0  0  0  0  0  0  0  0  0  0  0  0
    3.8768    1.5671    0.0000 H   0  0  0  0  0  0  0  0  0  0  0  0
    3.8204   -0.5209    0.0000 H   0  0  0  0  0  0  0  0  0  0  0  0
    0.4363    2.4661    0.0000 H   0  0  0  0  0  0  0  0  0  0  0  0
    0.2911    5.3777    0.0000 H   0  0  0  0  0  0  0  0  0  0  0  0
    1.5933    4.3703    0.0000 H   0  0  0  0  0  0  0  0  0  0  0  0
   -0.6574    3.6308    0.0000 H   0  0  0  0  0  0  0  0  0  0  0  0
    2.5275    3.9347    0.0000 H   0  0  0  0  0  0  0  0  0  0  0  0
    3.2221    2.3374    0.0000 H   0  0  0  0  0  0  0  0  0  0  0  0
    2.9195    5.3223    0.0000 H   0  0  0  0  0  0  0  0  0  0  0  0
    5.8739    4.8014    0.0000 H   0  0  0  0  0  0  0  0  0  0  0  0
    3.1800    6.7996    0.0000 H   0  0  0  0  0  0  0  0  0  0  0  0
    6.1344    6.2786    0.0000 H   0  0  0  0  0  0  0  0  0  0  0  0
    6.3949    7.7558    0.0000 H   0  0  0  0  0  0  0  0  0  0  0  0
    3.4405    8.2768    0.0000 H   0  0  0  0  0  0  0  0  0  0  0  0
    3.7009    9.7540    0.0000 H   0  0  0  0  0  0  0  0  0  0  0  0
    6.6554    9.2330    0.0000 H   0  0  0  0  0  0  0  0  0  0  0  0
    6.9158   10.7103    0.0000 H   0  0  0  0  0  0  0  0  0  0  0  0
    3.9614   11.2312    0.0000 H   0  0  0  0  0  0  0  0  0  0  0  0
    5.9596   13.9251    0.0000 H   0  0  0  0  0  0  0  0  0  0  0  0
    4.2219   12.7084    0.0000 H   0  0  0  0  0  0  0  0  0  0  0  0
    7.1763   12.1875    0.0000 H   0  0  0  0  0  0  0  0  0  0  0  0
    1.8302   -1.1491    0.0000 H   0  0  0  0  0  0  0  0  0  0  0  0
   -0.0870    1.5653    0.0000 H   0  0  0  0  0  0  0  0  0  0  0  0
   -1.0746    2.8482    0.0000 H   0  0  0  0  0  0  0  0  0  0  0  0
   -1.5472    3.6132    0.0000 H   0  0  0  0  0  0  0  0  0  0  0  0
   -3.9543    1.8321    0.0000 H   0  0  0  0  0  0  0  0  0  0  0  0
   -2.5113    4.7623    0.0000 H   0  0  0  0  0  0  0  0  0  0  0  0
   -4.8095    2.8340    0.0000 H   0  0  0  0  0  0  0  0  0  0  0  0
   -5.7737    3.9830    0.0000 H   0  0  0  0  0  0  0  0  0  0  0  0
   -3.4755    5.9114    0.0000 H   0  0  0  0  0  0  0  0  0  0  0  0
   -6.5530    7.2453    0.0000 H   0  0  0  0  0  0  0  0  0  0  0  0
   -4.4397    7.0604    0.0000 H   0  0  0  0  0  0  0  0  0  0  0  0
   -6.7378    5.1321    0.0000 H   0  0  0  0  0  0  0  0  0  0  0  0
   -4.5083    0.4895    0.0000 H   0  0  0  0  0  0  0  0  0  0  0  0
   -3.7121    2.0865    0.0000 H   0  0  0  0  0  0  0  0  0  0  0  0
   -4.3301   -1.5000    0.0000 H   0  0  0  0  0  0  0  0  0  0  0  0
   -2.6962   -2.6491    0.0000 H   0  0  0  0  0  0  0  0  0  0  0  0
    0.1963   -3.7981    0.0000 H   0  0  0  0  0  0  0  0  0  0  0  0
   -1.9169   -3.6132    0.0000 H   0  0  0  0  0  0  0  0  0  0  0  0
    0.4902   -1.8321    0.0000 H   0  0  0  0  0  0  0  0  0  0  0  0
    0.4697   -1.9479    0.0000 H   0  0  0  0  0  0  0  0  0  0  0  0
  1  2  2  3
  2  3  1  0
  3  4  1  0
  3  5  1  0
  5  6  1  0
  6  7  1  0
  7  8  1  0
  8  9  1  0
  9 10  1  0
 10 11  1  0
 11 12  1  0
  2 13  1  0
 13 14  1  0
 14 15  1  0
 15 16  1  0
 16 17  1  0
 17 18  1  0
 18 19  1  0
 15 20  1  0
 20 21  1  0
 21 22  1  0
 22 23  1  0
 22 24  1  0
 24 13  1  0
 24 14  1  0
  1 25  1  0
  1 26  1  0
  3 27  1  0
  4 28  1  0
  4 29  1  0
  4 30  1  0
  5 31  1  0
  5 32  1  0
  7 33  1  0
  7 34  1  0
  8 35  1  0
  8 36  1  0
  9 37  1  0
  9 38  1  0
 10 39  1  0
 10 40  1  0
 11 41  1  0
 11 42  1  0
 12 43  1  0
 12 44  1  0
 12 45  1  0
 13 46  1  0
 14 47  1  0
 15 48  1  0
 16 49  1  0
 16 50  1  0
 17 51  1  0
 17 52  1  0
 18 53  1  0
 18 54  1  0
 19 55  1  0
 19 56  1  0
 19 57  1  0
 20 58  1  0
 20 59  1  0
 21 60  1  0
 22 61  1  0
 23 62  1  0
 23 63  1  0
 23 64  1  0
 24 65  1  0
M  END
$$$$
