
     RDKit          2D

 38 44  0  0  0  0  0  0  0  0999 V2000
    3.5737    5.5604    0.0000 C   0  0  0  0  0  0  0  0  0  0  0  0
    4.7228    4.5963    0.0000 C   0  0  0  0  0  0  0  0  0  0  0  0
    5.8718    3.6321    0.0000 C   0  0  0  0  0  0  0  0  0  0  0  0
    7.0209    2.6679    0.0000 O   0  0  0  0  0  0  0  0  0  0  0  0
    3.7586    3.4472    0.0000 C   0  0  0  0  0  0  0  0  0  0  0  0
    2.7944    2.2981    0.0000 C   0  0  0  0  0  0  0  0  0  0  0  0
    1.8302    1.1491    0.0000 C   0  0  0  0  0  0  0  0  0  0  0  0
    0.8660    0.0000    0.0000 C   0  0  0  0  0  0  0  0  0  0  0  0
   -0.4330    0.7500    0.0000 C   0  0  0  0  0  0  0  0  0  0  0  0
   -3.1586    0.4635    0.0000 C   0  0  0  0  0  0  0  0  0  0  0  0
   -1.7321    0.0000    0.0000 C   0  0  0  0  0  0  0  0  0  0  0  0
   -2.8468   -1.0037    0.0000 C   0  0  0  0  0  0  0  0  0  0  0  0
   -4.2171   -1.6138    0.0000 C   0  0  0  0  0  0  0  0  0  0  0  0
   -3.6070   -2.9841    0.0000 C   0  0  0  0  0  0  0  0  0  0  0  0
   -0.7449   -2.2172    0.0000 C   0  0  0  0  0  0  0  0  0  0  0  0
   -2.2367   -2.3740    0.0000 C   0  0  0  0  0  0  0  0  0  0  0  0
   -1.8484   -3.8229    0.0000 O   0  0  0  0  0  0  0  0  0  0  0  0
   -0.4330   -0.7500    0.0000 C   0  0  0  0  0  0  0  0  0  0  0  0
    2.4246    6.5246    0.0000 H   0  0  0  0  0  0  0  0  0  0  0  0
    2.9259    4.9564    0.0000 H   0  0  0  0  0  0  0  0  0  0  0  0
    4.5379    6.7095    0.0000 H   0  0  0  0  0  0  0  0  0  0  0  0
    5.6869    5.7453    0.0000 H   0  0  0  0  0  0  0  0  0  0  0  0
    6.8360    4.7812    0.0000 H   0  0  0  0  0  0  0  0  0  0  0  0
    5.3894    2.8892    0.0000 H   0  0  0  0  0  0  0  0  0  0  0  0
    8.4304    3.1809    0.0000 H   0  0  0  0  0  0  0  0  0  0  0  0
    3.0157    3.9296    0.0000 H   0  0  0  0  0  0  0  0  0  0  0  0
    4.3626    2.7994    0.0000 H   0  0  0  0  0  0  0  0  0  0  0  0
    3.9435    1.3340    0.0000 H   0  0  0  0  0  0  0  0  0  0  0  0
    1.6453    3.2623    0.0000 H   0  0  0  0  0  0  0  0  0  0  0  0
    0.6811    2.1132    0.0000 H   0  0  0  0  0  0  0  0  0  0  0  0
    2.9793    0.1849    0.0000 H   0  0  0  0  0  0  0  0  0  0  0  0
    1.8302   -1.1491    0.0000 H   0  0  0  0  0  0  0  0  0  0  0  0
   -4.1623    1.5782    0.0000 H   0  0  0  0  0  0  0  0  0  0  0  0
   -5.5874   -2.2239    0.0000 H   0  0  0  0  0  0  0  0  0  0  0  0
   -4.8272   -0.2435    0.0000 H   0  0  0  0  0  0  0  0  0  0  0  0
   -4.1445   -4.3845    0.0000 H   0  0  0  0  0  0  0  0  0  0  0  0
    0.2588   -3.3319    0.0000 H   0  0  0  0  0  0  0  0  0  0  0  0
   -2.9091   -4.8836    0.0000 H   0  0  0  0  0  0  0  0  0  0  0  0
  1  2  1  0
  2  3  1  0
  3  4  1  0
  2  5  1  0
  5  6  1  0
  6  7  1  0
  7  8  1  0
  8  9  1  0
  9 10  1  0
 10 11  1  0
 11 12  1  1
 12 13  1  1
 13 14  1  0
 14 15  1  0
 15 16  1  0
 16 17  1  6
 15 18  1  0
 18  8  1  0
  9 11  1  6
 16 12  1  0
 18  9  1  1
 12 10  1  0
 16 14  1  0
 18 11  1  0
  1 19  1  0
  1 20  1  0
  1 21  1  0
  2 22  1  6
  3 23  1  0
  3 24  1  0
  4 25  1  0
  5 26  1  0
  5 27  1  0
  6 28  1  0
  6 29  1  0
  7 30  1  0
  7 31  1  0
  8 32  1  6
 10 33  1  6
 13 34  1  0
 13 35  1  0
 14 36  1  6
 15 37  1  6
 17 38  1  0
M  END
$$$$
