
     RDKit          2D

 90 96  0  0  0  0  0  0  0  0999 V2000
   -4.2501   -6.3837    0.0000 C   0  0  0  0  0  0  0  0  0  0  0  0
   -5.4789   -5.5233    0.0000 C   0  0  0  0  0  0  0  0  0  0  0  0
   -6.7076   -4.6629    0.0000 C   0  0  0  0  0  0  0  0  0  0  0  0
   -7.9363   -3.8026    0.0000 C   0  0  0  0  0  0  0  0  0  0  0  0
   -9.1651   -2.9422    0.0000 O   0  0  0  0  0  0  0  0  0  0  0  0
   -4.6185   -4.2946    0.0000 C   0  0  0  0  0  0  0  0  0  0  0  0
   -3.7581   -3.0658    0.0000 C   0  0  0  0  0  0  0  0  0  0  0  0
   -2.8978   -1.8371    0.0000 C   0  0  0  0  0  0  0  0  0  0  0  0
   -2.5095   -0.3882    0.0000 C   0  0  0  0  0  0  0  0  0  0  0  0
   -3.7233   -1.3704    0.0000 C   0  0  0  0  0  0  0  0  0  0  0  0
   -5.1237   -1.9079    0.0000 C   0  0  0  0  0  0  0  0  0  0  0  0
   -3.3351   -2.8193    0.0000 C   0  0  0  0  0  0  0  0  0  0  0  0
   -3.2566   -4.3172    0.0000 O   0  0  0  0  0  0  0  0  0  0  0  0
   -4.5146   -5.1342    0.0000 C   0  0  0  0  0  0  0  0  0  0  0  0
   -3.6976   -6.3922    0.0000 C   0  0  0  0  0  0  0  0  0  0  0  0
   -4.9556   -7.2091    0.0000 C   0  0  0  0  0  0  0  0  0  0  0  0
   -5.7726   -5.9511    0.0000 C   0  0  0  0  0  0  0  0  0  0  0  0
   -6.5895   -4.6931    0.0000 C   0  0  0  0  0  0  0  0  0  0  0  0
   -7.4065   -3.4351    0.0000 C   0  0  0  0  0  0  0  0  0  0  0  0
   -8.2234   -2.1771    0.0000 C   0  0  0  0  0  0  0  0  0  0  0  0
   -9.0404   -0.9191    0.0000 C   0  0  0  0  0  0  0  0  0  0  0  0
  -10.1374   -1.9421    0.0000 C   0  0  0  0  0  0  0  0  0  0  0  0
  -11.5719   -1.5036    0.0000 C   0  0  0  0  0  0  0  0  0  0  0  0
  -11.9093   -0.0420    0.0000 C   0  0  0  0  0  0  0  0  0  0  0  0
  -12.2467    1.4196    0.0000 C   0  0  0  0  0  0  0  0  0  0  0  0
  -10.8123    0.9810    0.0000 C   0  0  0  0  0  0  0  0  0  0  0  0
   -9.7153    2.0040    0.0000 C   0  0  0  0  0  0  0  0  0  0  0  0
   -9.3778    0.5424    0.0000 C   0  0  0  0  0  0  0  0  0  0  0  0
   -1.8371   -2.8978    0.0000 C   0  0  0  0  0  0  0  0  0  0  0  0
   -2.2253   -4.3467    0.0000 C   0  0  0  0  0  0  0  0  0  0  0  0
   -2.6136   -5.7956    0.0000 O   0  0  0  0  0  0  0  0  0  0  0  0
   -0.3882   -2.5095    0.0000 C   0  0  0  0  0  0  0  0  0  0  0  0
   -0.0000   -1.0607    0.0000 C   0  0  0  0  0  0  0  0  0  0  0  0
    1.0607    0.0000    0.0000 C   0  0  0  0  0  0  0  0  0  0  0  0
    0.0000    1.0607    0.0000 C   0  0  0  0  0  0  0  0  0  0  0  0
   -1.0607    0.0000    0.0000 C   0  0  0  0  0  0  0  0  0  0  0  0
   -3.1355   -7.3874    0.0000 H   0  0  0  0  0  0  0  0  0  0  0  0
   -5.3823   -7.3677    0.0000 H   0  0  0  0  0  0  0  0  0  0  0  0
   -3.0065   -5.5450    0.0000 H   0  0  0  0  0  0  0  0  0  0  0  0
   -6.4826   -6.6380    0.0000 H   0  0  0  0  0  0  0  0  0  0  0  0
   -7.7113   -5.7776    0.0000 H   0  0  0  0  0  0  0  0  0  0  0  0
   -6.1701   -3.2625    0.0000 H   0  0  0  0  0  0  0  0  0  0  0  0
   -8.6405   -5.1270    0.0000 H   0  0  0  0  0  0  0  0  0  0  0  0
   -7.2322   -2.4781    0.0000 H   0  0  0  0  0  0  0  0  0  0  0  0
  -10.4371   -3.7371    0.0000 H   0  0  0  0  0  0  0  0  0  0  0  0
   -3.5038   -5.2983    0.0000 H   0  0  0  0  0  0  0  0  0  0  0  0
   -5.2993   -2.9580    0.0000 H   0  0  0  0  0  0  0  0  0  0  0  0
   -3.0773   -4.4024    0.0000 H   0  0  0  0  0  0  0  0  0  0  0  0
   -5.2136   -2.7031    0.0000 H   0  0  0  0  0  0  0  0  0  0  0  0
   -4.3702   -1.5510    0.0000 H   0  0  0  0  0  0  0  0  0  0  0  0
   -3.5702    0.6724    0.0000 H   0  0  0  0  0  0  0  0  0  0  0  0
   -4.4043   -0.0339    0.0000 H   0  0  0  0  0  0  0  0  0  0  0  0
   -6.6125   -2.0907    0.0000 H   0  0  0  0  0  0  0  0  0  0  0  0
   -5.6612   -0.5076    0.0000 H   0  0  0  0  0  0  0  0  0  0  0  0
   -4.7608   -3.3634    0.0000 H   0  0  0  0  0  0  0  0  0  0  0  0
   -4.8166   -3.0539    0.0000 H   0  0  0  0  0  0  0  0  0  0  0  0
   -5.1721   -3.7860    0.0000 H   0  0  0  0  0  0  0  0  0  0  0  0
   -2.7334   -7.5412    0.0000 H   0  0  0  0  0  0  0  0  0  0  0  0
   -2.2793   -5.9039    0.0000 H   0  0  0  0  0  0  0  0  0  0  0  0
   -6.2136   -8.0261    0.0000 H   0  0  0  0  0  0  0  0  0  0  0  0
   -4.1387   -8.4671    0.0000 H   0  0  0  0  0  0  0  0  0  0  0  0
   -6.9216   -6.9153    0.0000 H   0  0  0  0  0  0  0  0  0  0  0  0
   -7.7386   -5.6573    0.0000 H   0  0  0  0  0  0  0  0  0  0  0  0
   -5.4405   -3.7289    0.0000 H   0  0  0  0  0  0  0  0  0  0  0  0
   -8.7547   -4.0926    0.0000 H   0  0  0  0  0  0  0  0  0  0  0  0
   -6.5249   -2.2215    0.0000 H   0  0  0  0  0  0  0  0  0  0  0  0
   -9.5717   -2.8346    0.0000 H   0  0  0  0  0  0  0  0  0  0  0  0
   -6.9654   -1.3602    0.0000 H   0  0  0  0  0  0  0  0  0  0  0  0
   -7.6596   -0.3330    0.0000 H   0  0  0  0  0  0  0  0  0  0  0  0
  -10.9763   -3.1856    0.0000 H   0  0  0  0  0  0  0  0  0  0  0  0
   -8.8384   -2.6921    0.0000 H   0  0  0  0  0  0  0  0  0  0  0  0
  -13.0698   -1.5821    0.0000 H   0  0  0  0  0  0  0  0  0  0  0  0
  -11.7547   -2.9924    0.0000 H   0  0  0  0  0  0  0  0  0  0  0  0
  -10.5728    0.6391    0.0000 H   0  0  0  0  0  0  0  0  0  0  0  0
  -13.7447    1.3411    0.0000 H   0  0  0  0  0  0  0  0  0  0  0  0
  -12.0639    2.9084    0.0000 H   0  0  0  0  0  0  0  0  0  0  0  0
  -10.5322    3.2620    0.0000 H   0  0  0  0  0  0  0  0  0  0  0  0
   -8.3345    2.5901    0.0000 H   0  0  0  0  0  0  0  0  0  0  0  0
   -7.9163    0.8799    0.0000 H   0  0  0  0  0  0  0  0  0  0  0  0
   -0.8346   -4.9086    0.0000 H   0  0  0  0  0  0  0  0  0  0  0  0
   -3.7251   -4.3206    0.0000 H   0  0  0  0  0  0  0  0  0  0  0  0
   -1.5529   -6.8562    0.0000 H   0  0  0  0  0  0  0  0  0  0  0  0
    1.0790   -2.8215    0.0000 H   0  0  0  0  0  0  0  0  0  0  0  0
   -0.0763   -3.9768    0.0000 H   0  0  0  0  0  0  0  0  0  0  0  0
    1.3808   -1.6467    0.0000 H   0  0  0  0  0  0  0  0  0  0  0  0
    2.1213    1.0607    0.0000 H   0  0  0  0  0  0  0  0  0  0  0  0
    2.1213   -1.0607    0.0000 H   0  0  0  0  0  0  0  0  0  0  0  0
   -1.0607    2.1213    0.0000 H   0  0  0  0  0  0  0  0  0  0  0  0
    1.0607    2.1213    0.0000 H   0  0  0  0  0  0  0  0  0  0  0  0
   -1.8107    1.2990    0.0000 H   0  0  0  0  0  0  0  0  0  0  0  0
  1  2  1  0
  2  3  1  0
  3  4  1  0
  4  5  1  0
  2  6  1  0
  6  7  1  0
  7  8  1  0
  8  9  1  0
  9 10  1  0
 10 11  1  0
 10 12  1  0
 12 13  1  0
 13 14  1  0
 14 15  1  0
 15 16  1  0
 16 17  1  0
 17 18  1  0
 18 19  1  0
 19 20  1  0
 20 21  1  0
 21 22  1  0
 22 23  1  0
 23 24  1  0
 24 25  1  0
 25 26  1  0
 26 27  1  0
 27 28  1  0
 12 29  1  0
 29 30  1  0
 30 31  1  0
 29 32  1  0
 32 33  1  0
 33 34  1  0
 34 35  1  0
 35 36  1  0
 29  8  1  0
 36 33  1  0
 36  9  1  0
 17 14  1  0
 28 21  1  0
 26 24  1  0
 28 26  1  0
  1 37  1  0
  1 38  1  0
  1 39  1  0
  2 40  1  0
  3 41  1  0
  3 42  1  0
  4 43  1  0
  4 44  1  0
  5 45  1  0
  6 46  1  0
  6 47  1  0
  7 48  1  0
  7 49  1  0
  8 50  1  0
  9 51  1  0
 10 52  1  0
 11 53  1  0
 11 54  1  0
 11 55  1  0
 12 56  1  0
 14 57  1  0
 15 58  1  0
 15 59  1  0
 16 60  1  0
 16 61  1  0
 17 62  1  0
 18 63  1  0
 18 64  1  0
 19 65  1  0
 19 66  1  0
 20 67  1  0
 20 68  1  0
 21 69  1  0
 22 70  1  0
 22 71  1  0
 23 72  1  0
 23 73  1  0
 24 74  1  0
 25 75  1  0
 25 76  1  0
 27 77  1  0
 27 78  1  0
 28 79  1  0
 30 80  1  0
 30 81  1  0
 31 82  1  0
 32 83  1  0
 32 84  1  0
 33 85  1  0
 34 86  1  0
 34 87  1  0
 35 88  1  0
 35 89  1  0
 36 90  1  0
M  END
$$$$
