
     RDKit          2D

 17 19  0  0  0  0  0  0  0  0999 V2000
   -1.2384   -0.2940    0.0000 O   0  0  0  0  0  0  0  0  0  0  0  0
   -2.4173    0.0000    0.0000 C   0  0  0  0  0  0  0  0  0  0  0  0
   -3.0682   -1.3515    0.0000 C   0  0  0  0  0  0  0  0  0  0  0  0
   -3.7190    0.0000    0.0000 C   0  0  0  0  0  0  0  0  0  0  0  0
   -3.0682    1.3515    0.0000 C   0  0  0  0  0  0  0  0  0  0  0  0
   -1.6058    1.6852    0.0000 O   0  0  0  0  0  0  0  0  0  0  0  0
   -0.4330    0.7500    0.0000 N   0  0  0  0  0  0  0  0  0  0  0  0
    0.8660    0.0000    0.0000 C   0  0  0  0  0  0  0  0  0  0  0  0
   -0.4330   -0.7500    0.0000 C   0  0  0  0  0  0  0  0  0  0  0  0
   -1.6058   -1.6852    0.0000 O   0  0  0  0  0  0  0  0  0  0  0  0
   -4.0034   -2.5242    0.0000 H   0  0  0  0  0  0  0  0  0  0  0  0
   -4.8917   -0.9352    0.0000 H   0  0  0  0  0  0  0  0  0  0  0  0
   -4.8917    0.9352    0.0000 H   0  0  0  0  0  0  0  0  0  0  0  0
   -4.0034    2.5242    0.0000 H   0  0  0  0  0  0  0  0  0  0  0  0
    1.8302    1.1491    0.0000 H   0  0  0  0  0  0  0  0  0  0  0  0
    1.8302   -1.1491    0.0000 H   0  0  0  0  0  0  0  0  0  0  0  0
    0.4120   -1.9894    0.0000 H   0  0  0  0  0  0  0  0  0  0  0  0
  1  2  2  0
  2  3  1  0
  3  4  1  0
  4  5  1  0
  5  6  1  0
  6  7  1  0
  7  8  1  0
  8  9  1  0
  9 10  1  0
  5  2  1  0
  9  7  1  0
 10  3  1  0
  3 11  1  0
  4 12  1  0
  4 13  1  0
  5 14  1  0
  8 15  1  0
  8 16  1  0
  9 17  1  0
M  END
$$$$
