
     RDKit          2D

105111  0  0  0  0  0  0  0  0999 V2000
   -4.3497   -0.8164    0.0000 C   0  0  0  0  0  0  0  0  0  0  0  0
   -5.0340   -2.1512    0.0000 C   0  0  0  0  0  0  0  0  0  0  0  0
   -5.7183   -3.4860    0.0000 C   0  0  0  0  0  0  0  0  0  0  0  0
   -6.4026   -4.8208    0.0000 C   0  0  0  0  0  0  0  0  0  0  0  0
   -7.5022   -5.8410    0.0000 C   0  0  0  0  0  0  0  0  0  0  0  0
   -7.1684   -7.3034    0.0000 C   0  0  0  0  0  0  0  0  0  0  0  0
   -5.7351   -7.7456    0.0000 C   0  0  0  0  0  0  0  0  0  0  0  0
   -4.6355   -6.7253    0.0000 C   0  0  0  0  0  0  0  0  0  0  0  0
   -3.8217   -7.9853    0.0000 O   0  0  0  0  0  0  0  0  0  0  0  0
   -4.9693   -5.2629    0.0000 C   0  0  0  0  0  0  0  0  0  0  0  0
   -3.4711   -5.1881    0.0000 C   0  0  0  0  0  0  0  0  0  0  0  0
   -3.1374   -6.6505    0.0000 C   0  0  0  0  0  0  0  0  0  0  0  0
   -1.7040   -7.0927    0.0000 S   0  0  0  0  0  0  0  0  0  0  0  0
   -2.0378   -5.6303    0.0000 C   0  0  0  0  0  0  0  0  0  0  0  0
   -0.9382   -4.6100    0.0000 O   0  0  0  0  0  0  0  0  0  0  0  0
   -1.2720   -3.1476    0.0000 C   0  0  0  0  0  0  0  0  0  0  0  0
   -1.6058   -1.6852    0.0000 C   0  0  0  0  0  0  0  0  0  0  0  0
   -3.0682   -1.3515    0.0000 C   0  0  0  0  0  0  0  0  0  0  0  0
   -3.7190    0.0000    0.0000 C   0  0  0  0  0  0  0  0  0  0  0  0
   -2.2566   -0.3338    0.0000 C   0  0  0  0  0  0  0  0  0  0  0  0
   -3.0682    1.3515    0.0000 C   0  0  0  0  0  0  0  0  0  0  0  0
   -4.4645    1.8995    0.0000 C   0  0  0  0  0  0  0  0  0  0  0  0
   -4.6880    3.3827    0.0000 N   0  0  0  0  0  0  0  0  0  0  0  0
   -5.6372    0.9642    0.0000 C   0  0  0  0  0  0  0  0  0  0  0  0
   -6.8100    0.0290    0.0000 C   0  0  0  0  0  0  0  0  0  0  0  0
   -6.5724    2.1370    0.0000 C   0  0  0  0  0  0  0  0  0  0  0  0
   -1.6058    1.6852    0.0000 C   0  0  0  0  0  0  0  0  0  0  0  0
   -0.4330    0.7500    0.0000 C   0  0  0  0  0  0  0  0  0  0  0  0
    0.8660    0.0000    0.0000 C   0  0  0  0  0  0  0  0  0  0  0  0
   -0.4330   -0.7500    0.0000 C   0  0  0  0  0  0  0  0  0  0  0  0
    0.4120   -1.9894    0.0000 C   0  0  0  0  0  0  0  0  0  0  0  0
   -2.6260    2.7848    0.0000 C   0  0  0  0  0  0  0  0  0  0  0  0
   -3.9608    3.4691    0.0000 O   0  0  0  0  0  0  0  0  0  0  0  0
   -1.7203    3.9805    0.0000 C   0  0  0  0  0  0  0  0  0  0  0  0
   -0.8146    5.1762    0.0000 O   0  0  0  0  0  0  0  0  0  0  0  0
   -1.3973    6.5584    0.0000 C   0  0  0  0  0  0  0  0  0  0  0  0
   -2.7795    5.9758    0.0000 C   0  0  0  0  0  0  0  0  0  0  0  0
   -0.0150    7.1411    0.0000 C   0  0  0  0  0  0  0  0  0  0  0  0
    1.3672    7.7237    0.0000 C   0  0  0  0  0  0  0  0  0  0  0  0
    1.9498    6.3415    0.0000 O   0  0  0  0  0  0  0  0  0  0  0  0
    2.7494    8.3064    0.0000 C   0  0  0  0  0  0  0  0  0  0  0  0
    4.1316    8.8890    0.0000 C   0  0  0  0  0  0  0  0  0  0  0  0
    5.5138    9.4717    0.0000 C   0  0  0  0  0  0  0  0  0  0  0  0
    6.8960   10.0543    0.0000 N   0  0  0  0  0  0  0  0  0  0  0  0
    8.0917    9.1486    0.0000 C   0  0  0  0  0  0  0  0  0  0  0  0
   -4.0087    0.6444    0.0000 H   0  0  0  0  0  0  0  0  0  0  0  0
   -5.7580   -0.2999    0.0000 H   0  0  0  0  0  0  0  0  0  0  0  0
   -3.2201   -1.8033    0.0000 H   0  0  0  0  0  0  0  0  0  0  0  0
   -3.7926   -2.9931    0.0000 H   0  0  0  0  0  0  0  0  0  0  0  0
   -6.4423   -1.6347    0.0000 H   0  0  0  0  0  0  0  0  0  0  0  0
   -4.3100   -4.0025    0.0000 H   0  0  0  0  0  0  0  0  0  0  0  0
   -7.0531   -2.8017    0.0000 H   0  0  0  0  0  0  0  0  0  0  0  0
   -7.5983   -3.9151    0.0000 H   0  0  0  0  0  0  0  0  0  0  0  0
   -8.3160   -4.5810    0.0000 H   0  0  0  0  0  0  0  0  0  0  0  0
   -8.8844   -6.4237    0.0000 H   0  0  0  0  0  0  0  0  0  0  0  0
   -8.2680   -8.3237    0.0000 H   0  0  0  0  0  0  0  0  0  0  0  0
   -5.5820   -9.2377    0.0000 H   0  0  0  0  0  0  0  0  0  0  0  0
   -3.1534   -6.4944    0.0000 H   0  0  0  0  0  0  0  0  0  0  0  0
   -4.3382   -9.3936    0.0000 H   0  0  0  0  0  0  0  0  0  0  0  0
   -4.6027   -3.8084    0.0000 H   0  0  0  0  0  0  0  0  0  0  0  0
   -3.2846   -3.6998    0.0000 H   0  0  0  0  0  0  0  0  0  0  0  0
   -3.9574   -7.9065    0.0000 H   0  0  0  0  0  0  0  0  0  0  0  0
    0.1904   -2.8138    0.0000 H   0  0  0  0  0  0  0  0  0  0  0  0
   -2.7344   -3.4814    0.0000 H   0  0  0  0  0  0  0  0  0  0  0  0
   -2.8853   -2.8403    0.0000 H   0  0  0  0  0  0  0  0  0  0  0  0
   -4.5679   -1.3215    0.0000 H   0  0  0  0  0  0  0  0  0  0  0  0
   -5.2190    0.0000    0.0000 H   0  0  0  0  0  0  0  0  0  0  0  0
   -2.2566    1.1662    0.0000 H   0  0  0  0  0  0  0  0  0  0  0  0
   -0.7942    0.0000    0.0000 H   0  0  0  0  0  0  0  0  0  0  0  0
   -6.0843    3.9307    0.0000 H   0  0  0  0  0  0  0  0  0  0  0  0
   -4.5660   -0.0858    0.0000 H   0  0  0  0  0  0  0  0  0  0  0  0
   -7.9827   -0.9062    0.0000 H   0  0  0  0  0  0  0  0  0  0  0  0
   -7.8812    1.0790    0.0000 H   0  0  0  0  0  0  0  0  0  0  0  0
   -6.0246   -1.2490    0.0000 H   0  0  0  0  0  0  0  0  0  0  0  0
   -7.5077    3.3097    0.0000 H   0  0  0  0  0  0  0  0  0  0  0  0
   -7.8504    1.3517    0.0000 H   0  0  0  0  0  0  0  0  0  0  0  0
   -5.6609    3.3282    0.0000 H   0  0  0  0  0  0  0  0  0  0  0  0
   -0.4591    2.6522    0.0000 H   0  0  0  0  0  0  0  0  0  0  0  0
    0.4120    1.9894    0.0000 H   0  0  0  0  0  0  0  0  0  0  0  0
    1.8302    1.1491    0.0000 H   0  0  0  0  0  0  0  0  0  0  0  0
    1.9631   -1.0230    0.0000 H   0  0  0  0  0  0  0  0  0  0  0  0
    1.2569   -3.2287    0.0000 H   0  0  0  0  0  0  0  0  0  0  0  0
   -0.5861   -3.1091    0.0000 H   0  0  0  0  0  0  0  0  0  0  0  0
    1.7451   -1.3018    0.0000 H   0  0  0  0  0  0  0  0  0  0  0  0
   -4.2177    4.9470    0.0000 H   0  0  0  0  0  0  0  0  0  0  0  0
   -3.0175    4.7337    0.0000 H   0  0  0  0  0  0  0  0  0  0  0  0
   -0.4231    3.2273    0.0000 H   0  0  0  0  0  0  0  0  0  0  0  0
   -1.9799    7.9406    0.0000 H   0  0  0  0  0  0  0  0  0  0  0  0
   -4.2224    5.5660    0.0000 H   0  0  0  0  0  0  0  0  0  0  0  0
   -3.3621    7.3580    0.0000 H   0  0  0  0  0  0  0  0  0  0  0  0
   -2.7310    4.4766    0.0000 H   0  0  0  0  0  0  0  0  0  0  0  0
   -0.5977    8.5233    0.0000 H   0  0  0  0  0  0  0  0  0  0  0  0
    0.5676    5.7589    0.0000 H   0  0  0  0  0  0  0  0  0  0  0  0
    0.7845    9.1059    0.0000 H   0  0  0  0  0  0  0  0  0  0  0  0
    3.4043    5.9750    0.0000 H   0  0  0  0  0  0  0  0  0  0  0  0
    2.1667    9.6886    0.0000 H   0  0  0  0  0  0  0  0  0  0  0  0
    3.4962    7.0055    0.0000 H   0  0  0  0  0  0  0  0  0  0  0  0
    4.7143    7.5068    0.0000 H   0  0  0  0  0  0  0  0  0  0  0  0
    3.5489   10.2712    0.0000 H   0  0  0  0  0  0  0  0  0  0  0  0
    4.9312   10.8539    0.0000 H   0  0  0  0  0  0  0  0  0  0  0  0
    6.0965    8.0895    0.0000 H   0  0  0  0  0  0  0  0  0  0  0  0
    7.0825   11.5427    0.0000 H   0  0  0  0  0  0  0  0  0  0  0  0
    9.2874    8.2429    0.0000 H   0  0  0  0  0  0  0  0  0  0  0  0
    8.9974   10.3443    0.0000 H   0  0  0  0  0  0  0  0  0  0  0  0
    7.1860    7.9529    0.0000 H   0  0  0  0  0  0  0  0  0  0  0  0
  1  2  1  0
  2  3  1  0
  3  4  1  0
  4  5  1  0
  5  6  1  0
  6  7  2  0
  7  8  1  0
  8  9  1  0
  8 10  1  0
 10 11  1  0
 11 12  1  0
 12 13  1  0
 13 14  1  0
 14 15  1  0
 15 16  1  0
 16 17  1  0
 17 18  1  0
 18 19  1  0
 19 20  1  0
 19 21  1  0
 21 22  1  0
 22 23  2  3
 22 24  1  0
 24 25  1  0
 24 26  1  0
 21 27  1  0
 27 28  1  0
 28 29  1  0
 29 30  1  0
 30 31  1  0
 27 32  1  0
 32 33  1  0
 32 34  1  0
 34 35  1  0
 35 36  1  0
 36 37  1  0
 36 38  1  0
 38 39  1  0
 39 40  1  0
 39 41  1  0
 41 42  1  0
 42 43  1  0
 43 44  1  0
 44 45  1  0
 10  4  1  0
 14 11  1  0
 20 17  1  0
 32 21  1  0
 14 12  1  0
 30 17  1  0
 30 28  1  0
  1 46  1  0
  1 47  1  0
  1 48  1  0
  2 49  1  0
  2 50  1  0
  3 51  1  0
  3 52  1  0
  4 53  1  0
  5 54  1  0
  5 55  1  0
  6 56  1  0
  7 57  1  0
  8 58  1  0
  9 59  1  0
 10 60  1  0
 11 61  1  0
 12 62  1  0
 16 63  1  0
 16 64  1  0
 18 65  1  0
 18 66  1  0
 19 67  1  0
 20 68  1  0
 20 69  1  0
 23 70  1  0
 24 71  1  0
 25 72  1  0
 25 73  1  0
 25 74  1  0
 26 75  1  0
 26 76  1  0
 26 77  1  0
 27 78  1  0
 28 79  1  0
 29 80  1  0
 29 81  1  0
 31 82  1  0
 31 83  1  0
 31 84  1  0
 33 85  1  0
 34 86  1  0
 34 87  1  0
 36 88  1  0
 37 89  1  0
 37 90  1  0
 37 91  1  0
 38 92  1  0
 38 93  1  0
 39 94  1  0
 40 95  1  0
 41 96  1  0
 41 97  1  0
 42 98  1  0
 42 99  1  0
 43100  1  0
 43101  1  0
 44102  1  0
 45103  1  0
 45104  1  0
 45105  1  0
M  END
$$$$
