
     RDKit          2D

 33 36  0  0  0  0  0  0  0  0999 V2000
    0.8058    4.7662    0.0000 C   0  0  0  0  0  0  0  0  0  0  0  0
    0.3637    3.3328    0.0000 C   0  0  0  0  0  0  0  0  0  0  0  0
    1.8595    3.2207    0.0000 C   0  0  0  0  0  0  0  0  0  0  0  0
    2.7045    1.9814    0.0000 C   0  0  0  0  0  0  0  0  0  0  0  0
    2.2623    0.5480    0.0000 C   0  0  0  0  0  0  0  0  0  0  0  0
    0.8660    0.0000    0.0000 C   0  0  0  0  0  0  0  0  0  0  0  0
   -0.4330    0.7500    0.0000 C   0  0  0  0  0  0  0  0  0  0  0  0
   -0.6566    2.2332    0.0000 C   0  0  0  0  0  0  0  0  0  0  0  0
   -1.7321    0.0000    0.0000 C   0  0  0  0  0  0  0  0  0  0  0  0
   -3.0311    0.7500    0.0000 C   0  0  0  0  0  0  0  0  0  0  0  0
   -4.3301    1.5000    0.0000 O   0  0  0  0  0  0  0  0  0  0  0  0
   -1.7321   -1.5000    0.0000 C   0  0  0  0  0  0  0  0  0  0  0  0
   -3.2093   -1.7605    0.0000 O   0  0  0  0  0  0  0  0  0  0  0  0
   -1.2190   -2.9095    0.0000 O   0  0  0  0  0  0  0  0  0  0  0  0
   -0.4330   -0.7500    0.0000 C   0  0  0  0  0  0  0  0  0  0  0  0
    1.2479    6.1995    0.0000 H   0  0  0  0  0  0  0  0  0  0  0  0
   -0.6275    5.2083    0.0000 H   0  0  0  0  0  0  0  0  0  0  0  0
    1.5905    4.6258    0.0000 H   0  0  0  0  0  0  0  0  0  0  0  0
   -0.8342    4.2356    0.0000 H   0  0  0  0  0  0  0  0  0  0  0  0
    3.1786    3.9349    0.0000 H   0  0  0  0  0  0  0  0  0  0  0  0
    1.8376    4.0176    0.0000 H   0  0  0  0  0  0  0  0  0  0  0  0
    4.0852    1.3953    0.0000 H   0  0  0  0  0  0  0  0  0  0  0  0
    3.8512    2.9484    0.0000 H   0  0  0  0  0  0  0  0  0  0  0  0
    2.4859   -0.9352    0.0000 H   0  0  0  0  0  0  0  0  0  0  0  0
    3.7333    0.2544    0.0000 H   0  0  0  0  0  0  0  0  0  0  0  0
    1.5169   -1.3515    0.0000 H   0  0  0  0  0  0  0  0  0  0  0  0
   -1.6463    3.3604    0.0000 H   0  0  0  0  0  0  0  0  0  0  0  0
   -2.1093    1.8595    0.0000 H   0  0  0  0  0  0  0  0  0  0  0  0
   -3.7811   -0.5490    0.0000 H   0  0  0  0  0  0  0  0  0  0  0  0
   -2.4450    2.1308    0.0000 H   0  0  0  0  0  0  0  0  0  0  0  0
   -5.6292    0.7500    0.0000 H   0  0  0  0  0  0  0  0  0  0  0  0
   -3.7223   -3.1700    0.0000 H   0  0  0  0  0  0  0  0  0  0  0  0
   -2.1832   -4.0586    0.0000 H   0  0  0  0  0  0  0  0  0  0  0  0
  1  2  1  0
  2  3  1  0
  3  4  1  0
  4  5  1  0
  5  6  1  0
  6  7  1  0
  7  8  1  0
  7  9  1  0
  9 10  1  0
 10 11  1  0
  9 12  1  0
 12 13  1  0
 12 14  1  0
 12 15  1  0
  8  2  1  0
 15  9  1  0
 15  6  1  0
 15  7  1  0
  1 16  1  0
  1 17  1  0
  1 18  1  0
  2 19  1  0
  3 20  1  0
  3 21  1  0
  4 22  1  0
  4 23  1  0
  5 24  1  0
  5 25  1  0
  6 26  1  0
  8 27  1  0
  8 28  1  0
 10 29  1  0
 10 30  1  0
 11 31  1  0
 13 32  1  0
 14 33  1  0
M  END
$$$$
