
     RDKit          2D

 46 51  0  0  0  0  0  0  0  0999 V2000
    2.6162    3.3086    0.0000 C   0  0  0  0  0  0  0  0  0  0  0  0
    3.1292    1.8991    0.0000 C   0  0  0  0  0  0  0  0  0  0  0  0
    1.8302    1.1491    0.0000 C   0  0  0  0  0  0  0  0  0  0  0  0
    0.8660    0.0000    0.0000 C   0  0  0  0  0  0  0  0  0  0  0  0
   -0.4330    0.7500    0.0000 C   0  0  0  0  0  0  0  0  0  0  0  0
   -0.4330    2.2500    0.0000 C   0  0  0  0  0  0  0  0  0  0  0  0
   -1.7321    3.0000    0.0000 C   0  0  0  0  0  0  0  0  0  0  0  0
   -1.7321    4.5000    0.0000 C   0  0  0  0  0  0  0  0  0  0  0  0
   -2.2451    5.9095    0.0000 C   0  0  0  0  0  0  0  0  0  0  0  0
   -3.2093    4.7605    0.0000 C   0  0  0  0  0  0  0  0  0  0  0  0
   -1.7321    0.0000    0.0000 C   0  0  0  0  0  0  0  0  0  0  0  0
   -2.4821   -1.2990    0.0000 N   0  0  0  0  0  0  0  0  0  0  0  0
   -1.1830   -2.0490    0.0000 C   0  0  0  0  0  0  0  0  0  0  0  0
   -0.4330   -0.7500    0.0000 C   0  0  0  0  0  0  0  0  0  0  0  0
    3.1292    0.3991    0.0000 C   0  0  0  0  0  0  0  0  0  0  0  0
    4.6065    0.1386    0.0000 C   0  0  0  0  0  0  0  0  0  0  0  0
    2.6162   -1.0105    0.0000 N   0  0  0  0  0  0  0  0  0  0  0  0
    3.5804   -2.1595    0.0000 C   0  0  0  0  0  0  0  0  0  0  0  0
    4.0934   -3.5691    0.0000 C   0  0  0  0  0  0  0  0  0  0  0  0
    2.6162   -3.3086    0.0000 C   0  0  0  0  0  0  0  0  0  0  0  0
    2.1032    4.7181    0.0000 H   0  0  0  0  0  0  0  0  0  0  0  0
    1.5287    3.1944    0.0000 H   0  0  0  0  0  0  0  0  0  0  0  0
    4.0258    3.8216    0.0000 H   0  0  0  0  0  0  0  0  0  0  0  0
    4.4202    2.2938    0.0000 H   0  0  0  0  0  0  0  0  0  0  0  0
    0.9624    2.1832    0.0000 H   0  0  0  0  0  0  0  0  0  0  0  0
    1.1543   -0.8375    0.0000 H   0  0  0  0  0  0  0  0  0  0  0  0
    0.4409    3.0941    0.0000 H   0  0  0  0  0  0  0  0  0  0  0  0
   -3.0311    2.2500    0.0000 H   0  0  0  0  0  0  0  0  0  0  0  0
   -0.2548    4.7605    0.0000 H   0  0  0  0  0  0  0  0  0  0  0  0
   -0.9460    6.6595    0.0000 H   0  0  0  0  0  0  0  0  0  0  0  0
   -3.2093    7.0586    0.0000 H   0  0  0  0  0  0  0  0  0  0  0  0
   -4.5083    5.5105    0.0000 H   0  0  0  0  0  0  0  0  0  0  0  0
   -3.7223    3.3509    0.0000 H   0  0  0  0  0  0  0  0  0  0  0  0
   -2.7927    1.0607    0.0000 H   0  0  0  0  0  0  0  0  0  0  0  0
   -3.9309   -1.6873    0.0000 H   0  0  0  0  0  0  0  0  0  0  0  0
    0.1160   -2.7990    0.0000 H   0  0  0  0  0  0  0  0  0  0  0  0
   -1.9330   -3.3481    0.0000 H   0  0  0  0  0  0  0  0  0  0  0  0
    6.0837   -0.1219    0.0000 H   0  0  0  0  0  0  0  0  0  0  0  0
    4.5280   -1.3594    0.0000 H   0  0  0  0  0  0  0  0  0  0  0  0
    5.0012    1.4296    0.0000 H   0  0  0  0  0  0  0  0  0  0  0  0
    1.8539   -1.2436    0.0000 H   0  0  0  0  0  0  0  0  0  0  0  0
    4.9612   -1.5735    0.0000 H   0  0  0  0  0  0  0  0  0  0  0  0
    5.5706   -3.3086    0.0000 H   0  0  0  0  0  0  0  0  0  0  0  0
    4.0934   -5.0691    0.0000 H   0  0  0  0  0  0  0  0  0  0  0  0
    2.1032   -4.7181    0.0000 H   0  0  0  0  0  0  0  0  0  0  0  0
    1.3172   -2.5586    0.0000 H   0  0  0  0  0  0  0  0  0  0  0  0
  1  2  1  0
  2  3  1  0
  3  4  1  0
  4  5  1  0
  5  6  1  1
  6  7  2  3
  7  8  1  0
  8  9  1  0
  9 10  1  0
  5 11  1  0
 11 12  1  0
 12 13  1  0
 14 13  1  6
  3 15  1  0
 15 16  1  0
 15 17  1  6
 17 18  1  0
 18 19  1  0
 19 20  1  0
 15  2  1  0
 20 18  1  0
 14  4  1  0
 14  5  1  0
 10  8  1  0
 14 11  1  0
  1 21  1  0
  1 22  1  0
  1 23  1  0
  2 24  1  6
  3 25  1  1
  4 26  1  6
  6 27  1  0
  7 28  1  0
  8 29  1  0
  9 30  1  0
  9 31  1  0
 10 32  1  0
 10 33  1  0
 11 34  1  6
 12 35  1  0
 13 36  1  0
 13 37  1  0
 16 38  1  0
 16 39  1  0
 16 40  1  0
 17 41  1  0
 18 42  1  0
 19 43  1  0
 19 44  1  0
 20 45  1  0
 20 46  1  0
M  END
$$$$
