
     RDKit          2D

 57 61  0  0  0  0  0  0  0  0999 V2000
   -0.7679   -2.6491    0.0000 C   0  0  0  0  0  0  0  0  0  0  0  0
   -1.7321   -1.5000    0.0000 C   0  0  0  0  0  0  0  0  0  0  0  0
   -3.0311   -0.7500    0.0000 C   0  0  0  0  0  0  0  0  0  0  0  0
   -3.0311    0.7500    0.0000 C   0  0  0  0  0  0  0  0  0  0  0  0
   -1.7321    1.5000    0.0000 C   0  0  0  0  0  0  0  0  0  0  0  0
   -0.4330    0.7500    0.0000 C   0  0  0  0  0  0  0  0  0  0  0  0
    0.8660    0.0000    0.0000 C   0  0  0  0  0  0  0  0  0  0  0  0
   -0.4330   -0.7500    0.0000 C   0  0  0  0  0  0  0  0  0  0  0  0
    0.3170   -2.0490    0.0000 C   0  0  0  0  0  0  0  0  0  0  0  0
    1.0670   -3.3481    0.0000 C   0  0  0  0  0  0  0  0  0  0  0  0
    1.8170   -4.6471    0.0000 C   0  0  0  0  0  0  0  0  0  0  0  0
    1.0670   -5.9462    0.0000 C   0  0  0  0  0  0  0  0  0  0  0  0
    1.8170   -7.2452    0.0000 C   0  0  0  0  0  0  0  0  0  0  0  0
    0.6679   -8.2094    0.0000 C   0  0  0  0  0  0  0  0  0  0  0  0
    0.9284   -9.6866    0.0000 C   0  0  0  0  0  0  0  0  0  0  0  0
   -0.4811  -10.1996    0.0000 C   0  0  0  0  0  0  0  0  0  0  0  0
   -1.8907  -10.7126    0.0000 C   0  0  0  0  0  0  0  0  0  0  0  0
   -1.1407  -12.0117    0.0000 C   0  0  0  0  0  0  0  0  0  0  0  0
   -1.8907  -13.3107    0.0000 C   0  0  0  0  0  0  0  0  0  0  0  0
   -3.3907  -13.3107    0.0000 C   0  0  0  0  0  0  0  0  0  0  0  0
   -4.1407  -12.0117    0.0000 C   0  0  0  0  0  0  0  0  0  0  0  0
   -3.3907  -10.7126    0.0000 C   0  0  0  0  0  0  0  0  0  0  0  0
   -3.1302   -9.2354    0.0000 F   0  0  0  0  0  0  0  0  0  0  0  0
    2.0775   -8.7224    0.0000 C   0  0  0  0  0  0  0  0  0  0  0  0
    0.0491   -3.9071    0.0000 H   0  0  0  0  0  0  0  0  0  0  0  0
   -0.0514   -2.2997    0.0000 H   0  0  0  0  0  0  0  0  0  0  0  0
   -1.9169   -3.6132    0.0000 H   0  0  0  0  0  0  0  0  0  0  0  0
   -2.6962   -2.6491    0.0000 H   0  0  0  0  0  0  0  0  0  0  0  0
   -3.5441   -2.1595    0.0000 H   0  0  0  0  0  0  0  0  0  0  0  0
   -4.5083   -0.4895    0.0000 H   0  0  0  0  0  0  0  0  0  0  0  0
   -4.5083    0.4895    0.0000 H   0  0  0  0  0  0  0  0  0  0  0  0
   -3.5441    2.1595    0.0000 H   0  0  0  0  0  0  0  0  0  0  0  0
   -2.6962    2.6491    0.0000 H   0  0  0  0  0  0  0  0  0  0  0  0
   -0.7679    2.6491    0.0000 H   0  0  0  0  0  0  0  0  0  0  0  0
    0.3170    2.0490    0.0000 H   0  0  0  0  0  0  0  0  0  0  0  0
    1.8302    1.1491    0.0000 H   0  0  0  0  0  0  0  0  0  0  0  0
    1.9631   -1.0230    0.0000 H   0  0  0  0  0  0  0  0  0  0  0  0
   -0.7620   -3.0911    0.0000 H   0  0  0  0  0  0  0  0  0  0  0  0
    1.6978   -1.4630    0.0000 H   0  0  0  0  0  0  0  0  0  0  0  0
   -0.1309   -4.2508    0.0000 H   0  0  0  0  0  0  0  0  0  0  0  0
    2.3660   -2.5981    0.0000 H   0  0  0  0  0  0  0  0  0  0  0  0
    3.3170   -4.6471    0.0000 H   0  0  0  0  0  0  0  0  0  0  0  0
   -0.4330   -5.9462    0.0000 H   0  0  0  0  0  0  0  0  0  0  0  0
    3.2265   -6.7322    0.0000 H   0  0  0  0  0  0  0  0  0  0  0  0
   -0.7416   -7.6963    0.0000 H   0  0  0  0  0  0  0  0  0  0  0  0
    1.6784  -10.9856    0.0000 H   0  0  0  0  0  0  0  0  0  0  0  0
    0.1999  -11.5361    0.0000 H   0  0  0  0  0  0  0  0  0  0  0  0
   -0.9942   -8.7901    0.0000 H   0  0  0  0  0  0  0  0  0  0  0  0
   -2.1512   -9.2354    0.0000 H   0  0  0  0  0  0  0  0  0  0  0  0
    0.0084  -12.9759    0.0000 H   0  0  0  0  0  0  0  0  0  0  0  0
    0.1173  -11.1948    0.0000 H   0  0  0  0  0  0  0  0  0  0  0  0
   -1.1407  -14.6098    0.0000 H   0  0  0  0  0  0  0  0  0  0  0  0
   -4.1407  -14.6098    0.0000 H   0  0  0  0  0  0  0  0  0  0  0  0
   -5.2898  -11.0475    0.0000 H   0  0  0  0  0  0  0  0  0  0  0  0
   -5.2898  -12.9759    0.0000 H   0  0  0  0  0  0  0  0  0  0  0  0
   -4.8002  -10.1996    0.0000 H   0  0  0  0  0  0  0  0  0  0  0  0
    3.4870   -9.2354    0.0000 H   0  0  0  0  0  0  0  0  0  0  0  0
  1  2  1  0
  2  3  1  0
  3  4  1  0
  4  5  1  0
  5  6  1  0
  6  7  1  0
  7  8  1  0
  8  9  1  6
  9 10  1  0
 10 11  1  0
 11 12  2  3
 12 13  1  0
 13 14  1  0
 14 15  1  0
 15 16  1  0
 16 17  1  0
 17 18  1  0
 18 19  1  0
 19 20  2  0
 20 21  1  0
 21 22  1  0
 22 23  1  0
 15 24  1  0
  8  2  1  0
 24 13  1  0
  8  6  1  0
 24 14  1  0
 22 17  1  0
  1 25  1  0
  1 26  1  0
  1 27  1  0
  2 28  1  6
  3 29  1  0
  3 30  1  0
  4 31  1  0
  4 32  1  0
  5 33  1  0
  5 34  1  0
  6 35  1  6
  7 36  1  0
  7 37  1  0
  9 38  1  0
  9 39  1  0
 10 40  1  0
 10 41  1  0
 11 42  1  0
 12 43  1  0
 13 44  1  6
 14 45  1  1
 15 46  1  6
 16 47  1  0
 16 48  1  0
 17 49  1  1
 18 50  1  0
 18 51  1  0
 19 52  1  0
 20 53  1  0
 21 54  1  0
 21 55  1  0
 22 56  1  6
 24 57  1  1
M  END
$$$$
