
     RDKit          2D

 36 38  0  0  0  0  0  0  0  0999 V2000
   -1.9330   -3.3481    0.0000 C   0  0  0  0  0  0  0  0  0  0  0  0
   -1.1830   -2.0490    0.0000 C   0  0  0  0  0  0  0  0  0  0  0  0
   -0.4330   -0.7500    0.0000 C   0  0  0  0  0  0  0  0  0  0  0  0
   -0.4330    0.7500    0.0000 C   0  0  0  0  0  0  0  0  0  0  0  0
    0.8660    0.0000    0.0000 C   0  0  0  0  0  0  0  0  0  0  0  0
    1.5169   -1.3515    0.0000 C   0  0  0  0  0  0  0  0  0  0  0  0
    2.2623    0.5480    0.0000 C   0  0  0  0  0  0  0  0  0  0  0  0
    2.7045    1.9814    0.0000 C   0  0  0  0  0  0  0  0  0  0  0  0
    1.8595    3.2207    0.0000 C   0  0  0  0  0  0  0  0  0  0  0  0
    0.3637    3.3328    0.0000 C   0  0  0  0  0  0  0  0  0  0  0  0
   -0.6566    2.2332    0.0000 C   0  0  0  0  0  0  0  0  0  0  0  0
   -2.0899    2.6754    0.0000 N   0  0  0  0  0  0  0  0  0  0  0  0
   -2.4237    4.1378    0.0000 C   0  0  0  0  0  0  0  0  0  0  0  0
   -0.9613    4.4716    0.0000 N   0  0  0  0  0  2  0  0  0  0  0  0
   -3.8861    3.8040    0.0000 N   0  0  0  0  0  2  0  0  0  0  0  0
   -2.6830   -4.6471    0.0000 H   0  0  0  0  0  0  0  0  0  0  0  0
   -0.6340   -4.0981    0.0000 H   0  0  0  0  0  0  0  0  0  0  0  0
   -3.2321   -2.5981    0.0000 H   0  0  0  0  0  0  0  0  0  0  0  0
   -0.1049   -2.8615    0.0000 H   0  0  0  0  0  0  0  0  0  0  0  0
   -2.4821   -1.2990    0.0000 H   0  0  0  0  0  0  0  0  0  0  0  0
   -1.9288    0.6379    0.0000 H   0  0  0  0  0  0  0  0  0  0  0  0
    2.1677   -2.7029    0.0000 H   0  0  0  0  0  0  0  0  0  0  0  0
    2.2719   -1.0957    0.0000 H   0  0  0  0  0  0  0  0  0  0  0  0
    0.3810   -2.0811    0.0000 H   0  0  0  0  0  0  0  0  0  0  0  0
    2.4763   -0.2199    0.0000 H   0  0  0  0  0  0  0  0  0  0  0  0
    3.7333    0.2544    0.0000 H   0  0  0  0  0  0  0  0  0  0  0  0
    4.0852    1.3953    0.0000 H   0  0  0  0  0  0  0  0  0  0  0  0
    3.8512    2.9484    0.0000 H   0  0  0  0  0  0  0  0  0  0  0  0
    3.1786    3.9349    0.0000 H   0  0  0  0  0  0  0  0  0  0  0  0
    1.8184    4.7202    0.0000 H   0  0  0  0  0  0  0  0  0  0  0  0
    0.6278    4.8094    0.0000 H   0  0  0  0  0  0  0  0  0  0  0  0
   -0.7153    4.3749    0.0000 H   0  0  0  0  0  0  0  0  0  0  0  0
   -3.1895    1.6551    0.0000 H   0  0  0  0  0  0  0  0  0  0  0  0
   -2.7575    5.6002    0.0000 H   0  0  0  0  0  0  0  0  0  0  0  0
   -0.5192    5.9049    0.0000 H   0  0  0  0  0  0  0  0  0  0  0  0
   -4.9064    4.9036    0.0000 H   0  0  0  0  0  0  0  0  0  0  0  0
  1  2  1  0
  2  3  1  0
  3  4  1  0
  4  5  1  0
  5  6  1  0
  5  7  1  0
  7  8  1  0
  8  9  1  0
  9 10  1  0
 10 11  1  0
 11 12  1  0
 12 13  1  0
 13 14  1  0
 13 15  1  0
  5  3  1  0
 11  3  1  0
 11  4  1  0
  1 16  1  0
  1 17  1  0
  1 18  1  0
  2 19  1  0
  2 20  1  0
  4 21  1  0
  6 22  1  0
  6 23  1  0
  6 24  1  0
  7 25  1  0
  7 26  1  0
  8 27  1  0
  8 28  1  0
  9 29  1  0
  9 30  1  0
 10 31  1  0
 10 32  1  0
 12 33  1  0
 13 34  1  0
 14 35  1  0
 15 36  1  0
M  RAD  2  14   2  15   2
M  END
$$$$
