
     RDKit          2D

 50 51  0  0  0  0  0  0  0  0999 V2000
    1.1199    6.5456    0.0000 C   0  0  0  0  0  0  0  0  0  0  0  0
    0.7317    5.0967    0.0000 C   0  0  0  0  0  0  0  0  0  0  0  0
    0.3434    3.6478    0.0000 C   0  0  0  0  0  0  0  0  0  0  0  0
   -0.0448    2.1989    0.0000 C   0  0  0  0  0  0  0  0  0  0  0  0
   -0.4330    0.7500    0.0000 C   0  0  0  0  0  0  0  0  0  0  0  0
    0.8660   -0.0000    0.0000 C   0  0  0  0  0  0  0  0  0  0  0  0
   -0.4330   -0.7500    0.0000 C   0  0  0  0  0  0  0  0  0  0  0  0
   -1.9330   -0.7500    0.0000 C   0  0  0  0  0  0  0  0  0  0  0  0
   -1.9330    0.7500    0.0000 N   0  0  0  0  0  0  0  0  0  0  0  0
   -0.7172    5.4849    0.0000 O   0  0  0  0  0  0  0  0  0  0  0  0
   -1.1054    6.9338    0.0000 C   0  0  0  0  0  0  0  0  0  0  0  0
   -1.4937    8.3827    0.0000 C   0  0  0  0  0  0  0  0  0  0  0  0
   -1.8819    9.8316    0.0000 C   0  0  0  0  0  0  0  0  0  0  0  0
   -2.2701   11.2804    0.0000 C   0  0  0  0  0  0  0  0  0  0  0  0
   -2.6584   12.7293    0.0000 O   0  0  0  0  0  0  0  0  0  0  0  0
   -2.9426    7.9944    0.0000 C   0  0  0  0  0  0  0  0  0  0  0  0
   -4.3915    7.6062    0.0000 C   0  0  0  0  0  0  0  0  0  0  0  0
   -3.3308    9.4433    0.0000 C   0  0  0  0  0  0  0  0  0  0  0  0
   -2.5543    6.5456    0.0000 C   0  0  0  0  0  0  0  0  0  0  0  0
   -2.1661    5.0967    0.0000 F   0  0  0  0  0  0  0  0  0  0  0  0
    1.5081    7.9944    0.0000 H   0  0  0  0  0  0  0  0  0  0  0  0
    0.5370    7.0893    0.0000 H   0  0  0  0  0  0  0  0  0  0  0  0
    2.5688    6.1573    0.0000 H   0  0  0  0  0  0  0  0  0  0  0  0
    2.1806    4.7084    0.0000 H   0  0  0  0  0  0  0  0  0  0  0  0
    1.7923    3.2595    0.0000 H   0  0  0  0  0  0  0  0  0  0  0  0
   -1.1054    4.0360    0.0000 H   0  0  0  0  0  0  0  0  0  0  0  0
   -1.4937    2.5871    0.0000 H   0  0  0  0  0  0  0  0  0  0  0  0
    1.4406    1.9902    0.0000 H   0  0  0  0  0  0  0  0  0  0  0  0
    1.9631    1.0230    0.0000 H   0  0  0  0  0  0  0  0  0  0  0  0
    1.8302   -1.1491    0.0000 H   0  0  0  0  0  0  0  0  0  0  0  0
   -0.0448   -2.1989    0.0000 H   0  0  0  0  0  0  0  0  0  0  0  0
   -3.4330   -0.7500    0.0000 H   0  0  0  0  0  0  0  0  0  0  0  0
   -1.9330   -2.2500    0.0000 H   0  0  0  0  0  0  0  0  0  0  0  0
   -2.9937    1.8107    0.0000 H   0  0  0  0  0  0  0  0  0  0  0  0
   -0.3663    7.2324    0.0000 H   0  0  0  0  0  0  0  0  0  0  0  0
   -2.4173    6.2065    0.0000 H   0  0  0  0  0  0  0  0  0  0  0  0
   -0.0448    8.7709    0.0000 H   0  0  0  0  0  0  0  0  0  0  0  0
   -0.4330   10.2198    0.0000 H   0  0  0  0  0  0  0  0  0  0  0  0
   -3.3817    9.8055    0.0000 H   0  0  0  0  0  0  0  0  0  0  0  0
   -0.8212   11.6687    0.0000 H   0  0  0  0  0  0  0  0  0  0  0  0
   -3.7555   11.0717    0.0000 H   0  0  0  0  0  0  0  0  0  0  0  0
   -1.5977   13.7900    0.0000 H   0  0  0  0  0  0  0  0  0  0  0  0
   -5.8403    7.2180    0.0000 H   0  0  0  0  0  0  0  0  0  0  0  0
   -4.9534    8.9970    0.0000 H   0  0  0  0  0  0  0  0  0  0  0  0
   -4.1827    6.1208    0.0000 H   0  0  0  0  0  0  0  0  0  0  0  0
   -3.8927   10.8341    0.0000 H   0  0  0  0  0  0  0  0  0  0  0  0
   -4.8162    9.2346    0.0000 H   0  0  0  0  0  0  0  0  0  0  0  0
   -2.0189   10.1706    0.0000 H   0  0  0  0  0  0  0  0  0  0  0  0
   -3.9451    5.9836    0.0000 H   0  0  0  0  0  0  0  0  0  0  0  0
   -1.0689    6.7543    0.0000 H   0  0  0  0  0  0  0  0  0  0  0  0
  1  2  1  0
  2  3  1  0
  3  4  1  0
  4  5  1  0
  5  6  1  0
  6  7  1  0
  7  8  1  0
  8  9  1  0
  2 10  1  0
 10 11  1  0
 11 12  1  0
 12 13  1  0
 13 14  1  0
 14 15  1  0
 12 16  1  0
 16 17  1  0
 16 18  1  0
 16 19  1  0
 19 20  1  0
  7  5  1  0
  9  5  1  0
  1 21  1  0
  1 22  1  0
  1 23  1  0
  2 24  1  0
  3 25  1  0
  3 26  1  0
  4 27  1  0
  4 28  1  0
  6 29  1  0
  6 30  1  0
  7 31  1  0
  8 32  1  0
  8 33  1  0
  9 34  1  0
 11 35  1  0
 11 36  1  0
 12 37  1  0
 13 38  1  0
 13 39  1  0
 14 40  1  0
 14 41  1  0
 15 42  1  0
 17 43  1  0
 17 44  1  0
 17 45  1  0
 18 46  1  0
 18 47  1  0
 18 48  1  0
 19 49  1  0
 19 50  1  0
M  END
$$$$
