
     RDKit          2D

 25 24  0  0  0  0  0  0  0  0999 V2000
    0.0000    0.0000    0.0000 C   0  0  0  0  0  0  0  0  0  0  0  0
    1.5000    0.0000    0.0000 S   0  0  0  0  0  6  0  0  0  0  0  0
    2.2500   -1.2990    0.0000 O   0  0  0  0  0  0  0  0  0  0  0  0
    2.2500    1.2990    0.0000 O   0  0  0  0  0  0  0  0  0  0  0  0
    3.0000   -0.0000    0.0000 O   0  0  0  0  0  0  0  0  0  0  0  0
    0.9139    1.3808    0.0000 F   0  0  0  0  0  0  0  0  0  0  0  0
    0.7500   -1.2990    0.0000 C   0  0  0  0  0  0  0  0  0  0  0  0
    0.0000   -2.5981    0.0000 N   0  0  0  0  0  0  0  0  0  0  0  0
   -1.5000   -2.5981    0.0000 N   0  0  0  0  0  0  0  0  0  0  0  0
   -2.2500   -3.8971    0.0000 C   0  0  0  0  0  0  0  0  0  0  0  0
   -3.0000   -5.1962    0.0000 N   0  0  0  0  0  0  0  0  0  0  0  0
   -1.5000    0.0000    0.0000 H   0  0  0  0  0  0  0  0  0  0  0  0
   -0.1828    1.4888    0.0000 H   0  0  0  0  0  0  0  0  0  0  0  0
   -0.3630   -1.4554    0.0000 H   0  0  0  0  0  0  0  0  0  0  0  0
    3.7500   -1.2990    0.0000 H   0  0  0  0  0  0  0  0  0  0  0  0
    3.0412    1.3962    0.0000 H   0  0  0  0  0  0  0  0  0  0  0  0
    3.5331    0.7074    0.0000 H   0  0  0  0  0  0  0  0  0  0  0  0
   -0.6919   -0.8857    0.0000 H   0  0  0  0  0  0  0  0  0  0  0  0
    1.8290   -2.3411    0.0000 H   0  0  0  0  0  0  0  0  0  0  0  0
    0.7500   -3.8971    0.0000 H   0  0  0  0  0  0  0  0  0  0  0  0
   -2.2500   -1.2990    0.0000 H   0  0  0  0  0  0  0  0  0  0  0  0
   -3.5490   -3.1471    0.0000 H   0  0  0  0  0  0  0  0  0  0  0  0
   -0.9510   -4.6471    0.0000 H   0  0  0  0  0  0  0  0  0  0  0  0
   -2.2500   -6.4952    0.0000 H   0  0  0  0  0  0  0  0  0  0  0  0
   -4.5000   -5.1962    0.0000 H   0  0  0  0  0  0  0  0  0  0  0  0
  1  2  1  0
  2  3  1  0
  2  4  1  0
  2  5  1  0
  2  6  1  0
  2  7  1  0
  7  8  1  0
  8  9  1  0
  9 10  1  0
 10 11  1  0
  1 12  1  0
  1 13  1  0
  1 14  1  0
  3 15  1  0
  4 16  1  0
  5 17  1  0
  7 18  1  0
  7 19  1  0
  8 20  1  0
  9 21  1  0
 10 22  1  0
 10 23  1  0
 11 24  1  0
 11 25  1  0
M  END
$$$$
