
     RDKit          2D

 25 26  0  0  0  0  0  0  0  0999 V2000
   -3.0311   -6.7500    0.0000 C   0  0  0  0  0  0  0  0  0  0  0  0
   -1.7321   -6.0000    0.0000 C   0  0  0  0  0  0  0  0  0  0  0  0
   -0.4330   -5.2500    0.0000 B   0  0  0  0  0  0  0  0  0  0  0  0
    0.8660   -6.0000    0.0000 C   0  0  0  0  0  0  0  0  0  0  0  0
   -0.4330   -3.7500    0.0000 C   0  0  0  0  0  0  0  0  0  0  0  0
   -0.4330   -2.2500    0.0000 C   0  0  0  0  0  0  0  0  0  0  0  0
   -0.4330   -0.7500    0.0000 C   0  0  0  0  0  0  0  0  0  0  0  0
   -1.7321    0.0000    0.0000 C   0  0  0  0  0  0  0  0  0  0  0  0
   -0.4330    0.7500    0.0000 C   0  0  0  0  0  0  0  0  0  0  0  0
    0.8660    0.0000    0.0000 O   0  0  0  0  0  0  0  0  0  0  0  0
   -4.3301   -7.5000    0.0000 H   0  0  0  0  0  0  0  0  0  0  0  0
   -3.7811   -5.4510    0.0000 H   0  0  0  0  0  0  0  0  0  0  0  0
   -2.2811   -8.0490    0.0000 H   0  0  0  0  0  0  0  0  0  0  0  0
   -0.9821   -7.2990    0.0000 H   0  0  0  0  0  0  0  0  0  0  0  0
   -2.4821   -4.7010    0.0000 H   0  0  0  0  0  0  0  0  0  0  0  0
    2.1651   -6.7500    0.0000 H   0  0  0  0  0  0  0  0  0  0  0  0
    0.1160   -7.2990    0.0000 H   0  0  0  0  0  0  0  0  0  0  0  0
    1.6160   -4.7010    0.0000 H   0  0  0  0  0  0  0  0  0  0  0  0
   -1.9330   -3.7500    0.0000 H   0  0  0  0  0  0  0  0  0  0  0  0
    1.0670   -3.7500    0.0000 H   0  0  0  0  0  0  0  0  0  0  0  0
    1.0670   -2.2500    0.0000 H   0  0  0  0  0  0  0  0  0  0  0  0
   -1.9330   -2.2500    0.0000 H   0  0  0  0  0  0  0  0  0  0  0  0
   -2.6962   -1.1491    0.0000 H   0  0  0  0  0  0  0  0  0  0  0  0
   -2.6962    1.1491    0.0000 H   0  0  0  0  0  0  0  0  0  0  0  0
   -0.4330    2.2500    0.0000 H   0  0  0  0  0  0  0  0  0  0  0  0
  1  2  1  0
  2  3  1  0
  3  4  1  0
  3  5  1  0
  5  6  1  0
  6  7  1  0
  7  8  1  0
  8  9  1  0
  9 10  1  0
  9  7  1  0
 10  7  1  0
  1 11  1  0
  1 12  1  0
  1 13  1  0
  2 14  1  0
  2 15  1  0
  4 16  1  0
  4 17  1  0
  4 18  1  0
  5 19  1  0
  5 20  1  0
  6 21  1  0
  6 22  1  0
  8 23  1  0
  8 24  1  0
  9 25  1  0
M  END
$$$$
