
     RDKit          2D

 26 28  0  0  0  0  0  0  0  0999 V2000
   -2.1832   -6.3567    0.0000 O   0  0  0  0  0  0  0  0  0  0  0  0
   -1.2190   -5.2077    0.0000 C   0  0  0  0  0  0  0  0  0  0  0  0
    0.2582   -5.4681    0.0000 O   0  0  0  0  0  0  0  0  0  0  0  0
   -1.7321   -3.7981    0.0000 C   0  0  0  0  0  0  0  0  0  0  0  0
   -3.2093   -4.0586    0.0000 C   0  0  0  0  0  0  0  0  0  0  0  0
   -2.6962   -2.6491    0.0000 C   0  0  0  0  0  0  0  0  0  0  0  0
   -1.7321   -1.5000    0.0000 C   0  0  0  0  0  0  0  0  0  0  0  0
   -3.0311   -0.7500    0.0000 C   0  0  0  0  0  0  0  0  0  0  0  0
   -3.0311    0.7500    0.0000 C   0  0  0  0  0  0  0  0  0  0  0  0
   -1.7321    1.5000    0.0000 C   0  0  0  0  0  0  0  0  0  0  0  0
   -0.4330    0.7500    0.0000 C   0  0  0  0  0  0  0  0  0  0  0  0
    0.8660    0.0000    0.0000 N   0  0  0  0  0  0  0  0  0  0  0  0
   -0.4330   -0.7500    0.0000 C   0  0  0  0  0  0  0  0  0  0  0  0
    0.7712   -6.8777    0.0000 H   0  0  0  0  0  0  0  0  0  0  0  0
   -0.6136   -3.3234    0.0000 H   0  0  0  0  0  0  0  0  0  0  0  0
   -4.6865   -3.7981    0.0000 H   0  0  0  0  0  0  0  0  0  0  0  0
   -3.2093   -5.5586    0.0000 H   0  0  0  0  0  0  0  0  0  0  0  0
   -3.4300   -2.3376    0.0000 H   0  0  0  0  0  0  0  0  0  0  0  0
   -0.8434   -2.3286    0.0000 H   0  0  0  0  0  0  0  0  0  0  0  0
   -4.5083   -0.4895    0.0000 H   0  0  0  0  0  0  0  0  0  0  0  0
   -3.3930   -1.4603    0.0000 H   0  0  0  0  0  0  0  0  0  0  0  0
   -4.3301    1.5000    0.0000 H   0  0  0  0  0  0  0  0  0  0  0  0
   -1.7321    3.0000    0.0000 H   0  0  0  0  0  0  0  0  0  0  0  0
    0.3170    2.0490    0.0000 H   0  0  0  0  0  0  0  0  0  0  0  0
    2.3660    0.0000    0.0000 H   0  0  0  0  0  0  0  0  0  0  0  0
    0.3170   -2.0490    0.0000 H   0  0  0  0  0  0  0  0  0  0  0  0
  1  2  2  0
  2  3  1  0
  2  4  1  0
  4  5  1  0
  5  6  1  0
  6  7  1  0
  7  8  1  0
  8  9  1  0
  9 10  2  0
 10 11  1  0
 11 12  1  0
 12 13  1  0
  6  4  1  0
 13  7  1  0
 13 11  1  0
  3 14  1  0
  4 15  1  0
  5 16  1  0
  5 17  1  0
  6 18  1  0
  7 19  1  0
  8 20  1  0
  8 21  1  0
  9 22  1  0
 10 23  1  0
 11 24  1  0
 12 25  1  0
 13 26  1  0
M  END
$$$$
