
     RDKit          2D

 77 77  0  0  0  0  0  0  0  0999 V2000
    5.5299    2.7394    0.0000 C   0  0  0  0  0  0  0  0  0  0  0  0
    4.3399    1.8263    0.0000 C   0  0  0  0  0  0  0  0  0  0  0  0
    3.1499    0.9131    0.0000 C   0  0  0  0  0  0  0  0  0  0  0  0
    1.9598    0.0000    0.0000 C   0  0  0  0  0  0  0  0  0  0  0  0
    1.3858   -1.3858    0.0000 C   0  0  0  0  0  0  0  0  0  0  0  0
   -0.0000   -1.9598    0.0000 C   0  0  0  0  0  0  0  0  0  0  0  0
   -1.3858   -1.3858    0.0000 C   0  0  0  0  0  0  0  0  0  0  0  0
   -1.5816   -2.8730    0.0000 C   0  0  0  0  0  0  0  0  0  0  0  0
   -1.7774   -4.3602    0.0000 C   0  0  0  0  0  0  0  0  0  0  0  0
   -1.9732   -5.8473    0.0000 Br  0  0  0  0  0  0  0  0  0  0  0  0
   -1.9598    0.0000    0.0000 C   0  0  0  0  0  0  0  0  0  0  0  0
   -1.3858    1.3858    0.0000 C   0  0  0  0  0  0  0  0  0  0  0  0
    0.0000    1.9598    0.0000 C   0  0  0  0  0  0  0  0  0  0  0  0
   -0.9131    3.1499    0.0000 C   0  0  0  0  0  0  0  0  0  0  0  0
   -1.8263    4.3399    0.0000 C   0  0  0  0  0  0  0  0  0  0  0  0
   -2.7394    5.5299    0.0000 C   0  0  0  0  0  0  0  0  0  0  0  0
   -3.6526    6.7200    0.0000 O   0  0  0  0  0  0  0  0  0  0  0  0
   -0.6363    5.2530    0.0000 C   0  0  0  0  0  0  0  0  0  0  0  0
    0.5538    6.1662    0.0000 C   0  0  0  0  0  0  0  0  0  0  0  0
   -1.5494    6.4431    0.0000 O   0  0  0  0  0  0  0  0  0  0  0  0
   -0.9754    7.8289    0.0000 C   0  0  0  0  0  0  0  0  0  0  0  0
   -0.4013    9.2147    0.0000 C   0  0  0  0  0  0  0  0  0  0  0  0
    0.1727   10.6005    0.0000 C   0  0  0  0  0  0  0  0  0  0  0  0
    0.7467   11.9864    0.0000 C   0  0  0  0  0  0  0  0  0  0  0  0
    1.3207   13.3722    0.0000 C   0  0  0  0  0  0  0  0  0  0  0  0
    2.1325   11.4123    0.0000 C   0  0  0  0  0  0  0  0  0  0  0  0
    3.5183   10.8383    0.0000 C   0  0  0  0  0  0  0  0  0  0  0  0
    1.3858    1.3858    0.0000 C   0  0  0  0  0  0  0  0  0  0  0  0
    6.7200    3.6526    0.0000 H   0  0  0  0  0  0  0  0  0  0  0  0
    4.6168    3.9295    0.0000 H   0  0  0  0  0  0  0  0  0  0  0  0
    6.4431    1.5494    0.0000 H   0  0  0  0  0  0  0  0  0  0  0  0
    3.4268    3.0163    0.0000 H   0  0  0  0  0  0  0  0  0  0  0  0
    5.2530    0.6363    0.0000 H   0  0  0  0  0  0  0  0  0  0  0  0
    2.3886    2.2056    0.0000 H   0  0  0  0  0  0  0  0  0  0  0  0
    4.0630   -0.2769    0.0000 H   0  0  0  0  0  0  0  0  0  0  0  0
    3.2523   -0.7613    0.0000 H   0  0  0  0  0  0  0  0  0  0  0  0
    2.8380   -1.7614    0.0000 H   0  0  0  0  0  0  0  0  0  0  0  0
    1.7614   -2.8380    0.0000 H   0  0  0  0  0  0  0  0  0  0  0  0
    0.6851   -3.1231    0.0000 H   0  0  0  0  0  0  0  0  0  0  0  0
   -0.2515   -2.8091    0.0000 H   0  0  0  0  0  0  0  0  0  0  0  0
   -2.8380   -1.7614    0.0000 H   0  0  0  0  0  0  0  0  0  0  0  0
   -3.0688   -2.6772    0.0000 H   0  0  0  0  0  0  0  0  0  0  0  0
   -0.8098   -3.0726    0.0000 H   0  0  0  0  0  0  0  0  0  0  0  0
   -3.2646   -4.1644    0.0000 H   0  0  0  0  0  0  0  0  0  0  0  0
   -0.2902   -4.5559    0.0000 H   0  0  0  0  0  0  0  0  0  0  0  0
   -3.2523   -0.7613    0.0000 H   0  0  0  0  0  0  0  0  0  0  0  0
   -3.2523    0.7613    0.0000 H   0  0  0  0  0  0  0  0  0  0  0  0
   -2.8380    1.7614    0.0000 H   0  0  0  0  0  0  0  0  0  0  0  0
   -2.1017    2.7040    0.0000 H   0  0  0  0  0  0  0  0  0  0  0  0
    0.7613    3.2523    0.0000 H   0  0  0  0  0  0  0  0  0  0  0  0
    0.3793    3.9111    0.0000 H   0  0  0  0  0  0  0  0  0  0  0  0
   -2.2056    2.3886    0.0000 H   0  0  0  0  0  0  0  0  0  0  0  0
   -3.0163    3.4268    0.0000 H   0  0  0  0  0  0  0  0  0  0  0  0
   -3.9295    4.6168    0.0000 H   0  0  0  0  0  0  0  0  0  0  0  0
   -1.8057    6.7039    0.0000 H   0  0  0  0  0  0  0  0  0  0  0  0
   -3.2517    8.1654    0.0000 H   0  0  0  0  0  0  0  0  0  0  0  0
    0.4151    4.1832    0.0000 H   0  0  0  0  0  0  0  0  0  0  0  0
    1.7438    7.0793    0.0000 H   0  0  0  0  0  0  0  0  0  0  0  0
    0.1279    7.6045    0.0000 H   0  0  0  0  0  0  0  0  0  0  0  0
    1.4669    4.9762    0.0000 H   0  0  0  0  0  0  0  0  0  0  0  0
    0.4701    7.4281    0.0000 H   0  0  0  0  0  0  0  0  0  0  0  0
   -2.2809    8.5676    0.0000 H   0  0  0  0  0  0  0  0  0  0  0  0
    0.9845    8.6407    0.0000 H   0  0  0  0  0  0  0  0  0  0  0  0
   -1.7872    9.7887    0.0000 H   0  0  0  0  0  0  0  0  0  0  0  0
   -1.2131   11.1746    0.0000 H   0  0  0  0  0  0  0  0  0  0  0  0
    1.4782    9.8619    0.0000 H   0  0  0  0  0  0  0  0  0  0  0  0
   -0.6391   12.5604    0.0000 H   0  0  0  0  0  0  0  0  0  0  0  0
    1.8948   14.7580    0.0000 H   0  0  0  0  0  0  0  0  0  0  0  0
   -0.0651   13.9462    0.0000 H   0  0  0  0  0  0  0  0  0  0  0  0
    2.7662   12.9714    0.0000 H   0  0  0  0  0  0  0  0  0  0  0  0
    2.8712   12.7178    0.0000 H   0  0  0  0  0  0  0  0  0  0  0  0
    1.7317    9.9669    0.0000 H   0  0  0  0  0  0  0  0  0  0  0  0
    4.9042   10.2643    0.0000 H   0  0  0  0  0  0  0  0  0  0  0  0
    4.0924   12.2241    0.0000 H   0  0  0  0  0  0  0  0  0  0  0  0
    2.9443    9.4525    0.0000 H   0  0  0  0  0  0  0  0  0  0  0  0
    1.7614    2.8380    0.0000 H   0  0  0  0  0  0  0  0  0  0  0  0
    2.7040    2.1017    0.0000 H   0  0  0  0  0  0  0  0  0  0  0  0
  1  2  1  0
  2  3  1  0
  3  4  1  0
  4  5  1  0
  5  6  1  0
  6  7  1  0
  7  8  1  0
  8  9  1  0
  9 10  1  0
  7 11  1  0
 11 12  1  0
 12 13  1  0
 13 14  1  0
 14 15  1  0
 15 16  1  0
 16 17  1  0
 15 18  1  0
 18 19  1  0
 18 20  1  0
 20 21  1  0
 21 22  1  0
 22 23  1  0
 23 24  1  0
 24 25  1  0
 24 26  1  0
 26 27  1  0
 13 28  1  0
 28  4  1  0
  1 29  1  0
  1 30  1  0
  1 31  1  0
  2 32  1  0
  2 33  1  0
  3 34  1  0
  3 35  1  0
  4 36  1  1
  5 37  1  0
  5 38  1  0
  6 39  1  0
  6 40  1  0
  7 41  1  6
  8 42  1  0
  8 43  1  0
  9 44  1  0
  9 45  1  0
 11 46  1  0
 11 47  1  0
 12 48  1  0
 12 49  1  0
 13 50  1  1
 14 51  1  0
 14 52  1  0
 15 53  1  1
 16 54  1  0
 16 55  1  0
 17 56  1  0
 18 57  1  6
 19 58  1  0
 19 59  1  0
 19 60  1  0
 21 61  1  0
 21 62  1  0
 22 63  1  0
 22 64  1  0
 23 65  1  0
 23 66  1  0
 24 67  1  1
 25 68  1  0
 25 69  1  0
 25 70  1  0
 26 71  1  0
 26 72  1  0
 27 73  1  0
 27 74  1  0
 27 75  1  0
 28 76  1  0
 28 77  1  0
M  END
$$$$
