
     RDKit          2D

 62 66  0  0  0  0  0  0  0  0999 V2000
    4.4030    8.9110    0.0000 C   0  0  0  0  0  0  0  0  0  0  0  0
    5.1530    7.6119    0.0000 C   0  0  0  0  0  0  0  0  0  0  0  0
    5.9030    6.3129    0.0000 C   0  0  0  0  0  0  0  0  0  0  0  0
    6.6530    5.0138    0.0000 C   0  0  0  0  0  0  0  0  0  0  0  0
    8.1530    5.0138    0.0000 N   0  0  0  0  0  0  0  0  0  0  0  0
    3.8540    6.8619    0.0000 C   0  0  0  0  0  0  0  0  0  0  0  0
    2.5550    6.1119    0.0000 C   0  0  0  0  0  0  0  0  0  0  0  0
    1.5908    7.2610    0.0000 C   0  0  0  0  0  0  0  0  0  0  0  0
    1.0777    5.8515    0.0000 C   0  0  0  0  0  0  0  0  0  0  0  0
    1.0777    4.3515    0.0000 C   0  0  0  0  0  0  0  0  0  0  0  0
    1.0777    2.8515    0.0000 C   0  0  0  0  0  0  0  0  0  0  0  0
    1.0777    1.3515    0.0000 C   0  0  0  0  0  0  0  0  0  0  0  0
    1.7286    0.0000    0.0000 C   0  0  0  0  0  0  0  0  0  0  0  0
    1.0777   -1.3515    0.0000 C   0  0  0  0  0  0  0  0  0  0  0  0
   -0.3846   -1.6852    0.0000 C   0  0  0  0  0  0  0  0  0  0  0  0
   -1.5574   -0.7500    0.0000 C   0  0  0  0  0  0  0  0  0  0  0  0
   -1.5574    0.7500    0.0000 C   0  0  0  0  0  0  0  0  0  0  0  0
   -0.3846    1.6852    0.0000 C   0  0  0  0  0  0  0  0  0  0  0  0
   -0.3995    6.1119    0.0000 C   0  0  0  0  0  0  0  0  0  0  0  0
   -1.8767    6.3724    0.0000 C   0  0  0  0  0  0  0  0  0  0  0  0
   -3.3539    6.6329    0.0000 C   0  0  0  0  0  0  0  0  0  0  0  0
   -4.3181    5.4838    0.0000 C   0  0  0  0  0  0  0  0  0  0  0  0
   -4.8311    6.8933    0.0000 C   0  0  0  0  0  0  0  0  0  0  0  0
   -5.3441    8.3029    0.0000 C   0  0  0  0  0  0  0  0  0  0  0  0
   -3.8669    8.0424    0.0000 C   0  0  0  0  0  0  0  0  0  0  0  0
    3.6530   10.2100    0.0000 H   0  0  0  0  0  0  0  0  0  0  0  0
    5.7021    9.6610    0.0000 H   0  0  0  0  0  0  0  0  0  0  0  0
    3.4570    8.6397    0.0000 H   0  0  0  0  0  0  0  0  0  0  0  0
    6.4521    8.3619    0.0000 H   0  0  0  0  0  0  0  0  0  0  0  0
    5.1957    5.7798    0.0000 H   0  0  0  0  0  0  0  0  0  0  0  0
    7.2021    7.0629    0.0000 H   0  0  0  0  0  0  0  0  0  0  0  0
    5.9030    3.7148    0.0000 H   0  0  0  0  0  0  0  0  0  0  0  0
    8.9030    3.7148    0.0000 H   0  0  0  0  0  0  0  0  0  0  0  0
    3.3619    7.7142    0.0000 H   0  0  0  0  0  0  0  0  0  0  0  0
    4.2001    6.0466    0.0000 H   0  0  0  0  0  0  0  0  0  0  0  0
    3.1679    4.9091    0.0000 H   0  0  0  0  0  0  0  0  0  0  0  0
    0.3928    8.1637    0.0000 H   0  0  0  0  0  0  0  0  0  0  0  0
    2.2483    8.6092    0.0000 H   0  0  0  0  0  0  0  0  0  0  0  0
   -0.4111    4.1686    0.0000 H   0  0  0  0  0  0  0  0  0  0  0  0
    2.4177    4.1869    0.0000 H   0  0  0  0  0  0  0  0  0  0  0  0
    0.1986    2.9594    0.0000 H   0  0  0  0  0  0  0  0  0  0  0  0
    2.5777    2.8515    0.0000 H   0  0  0  0  0  0  0  0  0  0  0  0
    2.4885    1.8610    0.0000 H   0  0  0  0  0  0  0  0  0  0  0  0
    3.0066    0.7853    0.0000 H   0  0  0  0  0  0  0  0  0  0  0  0
    2.9013   -0.9352    0.0000 H   0  0  0  0  0  0  0  0  0  0  0  0
    2.0130   -2.5242    0.0000 H   0  0  0  0  0  0  0  0  0  0  0  0
   -0.7184   -3.1476    0.0000 H   0  0  0  0  0  0  0  0  0  0  0  0
   -2.2082   -2.1015    0.0000 H   0  0  0  0  0  0  0  0  0  0  0  0
   -3.0496   -0.5970    0.0000 H   0  0  0  0  0  0  0  0  0  0  0  0
   -3.0496    0.5970    0.0000 H   0  0  0  0  0  0  0  0  0  0  0  0
   -2.3681    2.0120    0.0000 H   0  0  0  0  0  0  0  0  0  0  0  0
   -1.4346    2.7564    0.0000 H   0  0  0  0  0  0  0  0  0  0  0  0
   -0.1005    2.5241    0.0000 H   0  0  0  0  0  0  0  0  0  0  0  0
   -0.3210    7.6099    0.0000 H   0  0  0  0  0  0  0  0  0  0  0  0
   -0.8381    4.6775    0.0000 H   0  0  0  0  0  0  0  0  0  0  0  0
   -1.6162    7.8496    0.0000 H   0  0  0  0  0  0  0  0  0  0  0  0
   -2.1371    4.8952    0.0000 H   0  0  0  0  0  0  0  0  0  0  0  0
   -3.3539    4.3347    0.0000 H   0  0  0  0  0  0  0  0  0  0  0  0
   -5.6171    4.7338    0.0000 H   0  0  0  0  0  0  0  0  0  0  0  0
   -6.8213    8.0424    0.0000 H   0  0  0  0  0  0  0  0  0  0  0  0
   -5.3441    9.8029    0.0000 H   0  0  0  0  0  0  0  0  0  0  0  0
   -2.9027    9.1915    0.0000 H   0  0  0  0  0  0  0  0  0  0  0  0
  1  2  1  0
  2  3  1  0
  3  4  1  0
  4  5  2  3
  2  6  1  0
  6  7  1  0
  7  8  1  0
  8  9  1  0
  9 10  1  1
 10 11  1  0
 11 12  1  0
 12 13  1  0
 13 14  1  0
 14 15  2  0
 15 16  1  0
 16 17  1  0
 17 18  1  0
  9 19  1  0
 19 20  1  0
 21 20  1  6
 21 22  1  0
 23 22  1  1
 23 24  1  0
 24 25  1  0
  9  7  1  0
 18 12  1  0
 23 21  1  0
 25 21  1  0
 25 23  1  0
  1 26  1  0
  1 27  1  0
  1 28  1  0
  2 29  1  6
  3 30  1  0
  3 31  1  0
  4 32  1  0
  5 33  1  0
  6 34  1  0
  6 35  1  0
  7 36  1  1
  8 37  1  0
  8 38  1  0
 10 39  1  0
 10 40  1  0
 11 41  1  0
 11 42  1  0
 12 43  1  1
 13 44  1  0
 13 45  1  0
 14 46  1  0
 15 47  1  0
 16 48  1  0
 16 49  1  0
 17 50  1  0
 17 51  1  0
 18 52  1  0
 18 53  1  0
 19 54  1  0
 19 55  1  0
 20 56  1  0
 20 57  1  0
 22 58  1  0
 22 59  1  0
 24 60  1  0
 24 61  1  0
 25 62  1  1
M  END
$$$$
