
     RDKit          2D

103112  0  0  0  0  0  0  0  0999 V2000
    5.2127    0.3882    0.0000 C   0  0  0  0  0  0  0  0  0  0  0  0
    3.7638   -0.0000    0.0000 C   0  0  0  0  0  0  0  0  0  0  0  0
    2.3149   -0.3882    0.0000 C   0  0  0  0  0  0  0  0  0  0  0  0
    0.8660    0.0000    0.0000 C   0  0  0  0  0  0  0  0  0  0  0  0
   -0.4330    0.7500    0.0000 C   0  0  0  0  0  0  0  0  0  0  0  0
   -1.9102    1.0105    0.0000 C   0  0  0  0  0  0  0  0  0  0  0  0
   -1.3972    2.4200    0.0000 C   0  0  0  0  0  0  0  0  0  0  0  0
   -2.3614    3.5691    0.0000 C   0  0  0  0  0  0  0  0  0  0  0  0
   -3.8557    3.6998    0.0000 C   0  0  0  0  0  0  0  0  0  0  0  0
   -3.9864    2.2055    0.0000 C   0  0  0  0  0  0  0  0  0  0  0  0
   -3.3874    0.7500    0.0000 C   0  0  0  0  0  0  0  0  0  0  0  0
   -2.8744   -0.6595    0.0000 C   0  0  0  0  0  0  0  0  0  0  0  0
   -2.8744   -2.1595    0.0000 C   0  0  0  0  0  0  0  0  0  0  0  0
   -4.1734   -1.4095    0.0000 C   0  0  0  0  0  0  0  0  0  0  0  0
   -5.1376   -2.5586    0.0000 C   0  0  0  0  0  0  0  0  0  0  0  0
   -5.1376   -0.2605    0.0000 C   0  0  0  0  0  0  0  0  0  0  0  0
   -6.1018    0.8886    0.0000 C   0  0  0  0  0  0  0  0  0  0  0  0
   -5.5888    2.2981    0.0000 C   0  0  0  0  0  0  0  0  0  0  0  0
   -7.0660    2.0377    0.0000 C   0  0  0  0  0  0  0  0  0  0  0  0
   -8.5432    1.7772    0.0000 C   0  0  0  0  0  0  0  0  0  0  0  0
   -7.5790    0.6281    0.0000 C   0  0  0  0  0  0  0  0  0  0  0  0
   -2.4921    2.0748    0.0000 C   0  0  0  0  0  0  0  0  0  0  0  0
   -0.9978    1.9441    0.0000 C   0  0  0  0  0  0  0  0  0  0  0  0
   -0.4330   -0.7500    0.0000 C   0  0  0  0  0  0  0  0  0  0  0  0
   -0.8212   -2.1989    0.0000 C   0  0  0  0  0  0  0  0  0  0  0  0
   -2.1203   -1.4489    0.0000 C   0  0  0  0  0  0  0  0  0  0  0  0
   -1.8819   -3.2595    0.0000 C   0  0  0  0  0  0  0  0  0  0  0  0
   -2.9426   -4.3202    0.0000 C   0  0  0  0  0  0  0  0  0  0  0  0
   -4.1713   -3.4598    0.0000 C   0  0  0  0  0  0  0  0  0  0  0  0
   -4.0406   -1.9656    0.0000 N   0  0  0  0  0  0  0  0  0  0  0  0
   -5.5308   -4.0938    0.0000 C   0  0  0  0  0  0  0  0  0  0  0  0
   -6.8902   -4.7277    0.0000 Al  0  0  0  0  0  3  0  0  0  0  0  0
   -7.0209   -6.2220    0.0000 C   0  0  0  0  0  0  0  0  0  0  0  0
   -8.1189   -3.8673    0.0000 N   0  0  0  0  0  0  0  0  0  0  0  0
   -3.5765   -5.6797    0.0000 C   0  0  0  0  0  0  0  0  0  0  0  0
   -2.0822   -5.5489    0.0000 C   0  0  0  0  0  0  0  0  0  0  0  0
   -0.0712   -3.4979    0.0000 C   0  0  0  0  0  0  0  0  0  0  0  0
    1.3776   -3.8862    0.0000 C   0  0  0  0  0  0  0  0  0  0  0  0
    2.6767   -3.1362    0.0000 C   0  0  0  0  0  0  0  0  0  0  0  0
    3.0649   -4.5850    0.0000 C   0  0  0  0  0  0  0  0  0  0  0  0
    3.0649   -1.6873    0.0000 C   0  0  0  0  0  0  0  0  0  0  0  0
    4.3640   -2.4373    0.0000 C   0  0  0  0  0  0  0  0  0  0  0  0
    6.6616    0.7765    0.0000 H   0  0  0  0  0  0  0  0  0  0  0  0
    4.8245    1.8371    0.0000 H   0  0  0  0  0  0  0  0  0  0  0  0
    5.7746   -1.0025    0.0000 H   0  0  0  0  0  0  0  0  0  0  0  0
    4.3258   -1.3908    0.0000 H   0  0  0  0  0  0  0  0  0  0  0  0
    3.3756    1.4489    0.0000 H   0  0  0  0  0  0  0  0  0  0  0  0
    2.3149    1.1118    0.0000 H   0  0  0  0  0  0  0  0  0  0  0  0
    1.4401    1.3858    0.0000 H   0  0  0  0  0  0  0  0  0  0  0  0
    0.4058    1.9935    0.0000 H   0  0  0  0  0  0  0  0  0  0  0  0
   -1.7274   -0.4783    0.0000 H   0  0  0  0  0  0  0  0  0  0  0  0
   -0.5803    3.6780    0.0000 H   0  0  0  0  0  0  0  0  0  0  0  0
    0.0447    2.0066    0.0000 H   0  0  0  0  0  0  0  0  0  0  0  0
   -1.2123    4.5333    0.0000 H   0  0  0  0  0  0  0  0  0  0  0  0
   -5.3500    3.8305    0.0000 H   0  0  0  0  0  0  0  0  0  0  0  0
   -3.7249    5.1941    0.0000 H   0  0  0  0  0  0  0  0  0  0  0  0
   -5.1355    1.2413    0.0000 H   0  0  0  0  0  0  0  0  0  0  0  0
   -4.8294    0.3366    0.0000 H   0  0  0  0  0  0  0  0  0  0  0  0
   -1.3781   -0.7643    0.0000 H   0  0  0  0  0  0  0  0  0  0  0  0
   -1.5041   -2.7697    0.0000 H   0  0  0  0  0  0  0  0  0  0  0  0
   -3.5554   -3.4960    0.0000 H   0  0  0  0  0  0  0  0  0  0  0  0
   -6.3512   -3.4402    0.0000 H   0  0  0  0  0  0  0  0  0  0  0  0
   -6.3957   -1.7417    0.0000 H   0  0  0  0  0  0  0  0  0  0  0  0
   -4.4105   -3.8706    0.0000 H   0  0  0  0  0  0  0  0  0  0  0  0
   -6.3957   -1.0774    0.0000 H   0  0  0  0  0  0  0  0  0  0  0  0
   -4.2560    0.9531    0.0000 H   0  0  0  0  0  0  0  0  0  0  0  0
   -4.7072    3.5117    0.0000 H   0  0  0  0  0  0  0  0  0  0  0  0
   -9.0562    3.1867    0.0000 H   0  0  0  0  0  0  0  0  0  0  0  0
   -9.8422    1.0272    0.0000 H   0  0  0  0  0  0  0  0  0  0  0  0
   -2.2574    0.5933    0.0000 H   0  0  0  0  0  0  0  0  0  0  0  0
    0.4965    1.8133    0.0000 H   0  0  0  0  0  0  0  0  0  0  0  0
   -0.6859    3.4113    0.0000 H   0  0  0  0  0  0  0  0  0  0  0  0
   -0.4116    0.5634    0.0000 H   0  0  0  0  0  0  0  0  0  0  0  0
   -1.9330   -0.7370    0.0000 H   0  0  0  0  0  0  0  0  0  0  0  0
   -3.5622   -1.0355    0.0000 H   0  0  0  0  0  0  0  0  0  0  0  0
   -2.7063   -2.8297    0.0000 H   0  0  0  0  0  0  0  0  0  0  0  0
   -1.0782   -0.3699    0.0000 H   0  0  0  0  0  0  0  0  0  0  0  0
   -3.2523   -2.6496    0.0000 H   0  0  0  0  0  0  0  0  0  0  0  0
   -0.8212   -4.3202    0.0000 H   0  0  0  0  0  0  0  0  0  0  0  0
   -5.2693   -1.1052    0.0000 H   0  0  0  0  0  0  0  0  0  0  0  0
   -6.1647   -2.7343    0.0000 H   0  0  0  0  0  0  0  0  0  0  0  0
   -5.0673   -5.5204    0.0000 H   0  0  0  0  0  0  0  0  0  0  0  0
   -7.1517   -7.7163    0.0000 H   0  0  0  0  0  0  0  0  0  0  0  0
   -8.5152   -6.0913    0.0000 H   0  0  0  0  0  0  0  0  0  0  0  0
   -5.5267   -6.3527    0.0000 H   0  0  0  0  0  0  0  0  0  0  0  0
   -9.4784   -4.5013    0.0000 H   0  0  0  0  0  0  0  0  0  0  0  0
   -7.9882   -2.3730    0.0000 H   0  0  0  0  0  0  0  0  0  0  0  0
   -5.0619   -5.4710    0.0000 H   0  0  0  0  0  0  0  0  0  0  0  0
   -3.7072   -7.1740    0.0000 H   0  0  0  0  0  0  0  0  0  0  0  0
   -1.6940   -6.9978    0.0000 H   0  0  0  0  0  0  0  0  0  0  0  0
   -0.6097   -5.2628    0.0000 H   0  0  0  0  0  0  0  0  0  0  0  0
   -1.2847   -4.3797    0.0000 H   0  0  0  0  0  0  0  0  0  0  0  0
   -0.0712   -4.9979    0.0000 H   0  0  0  0  0  0  0  0  0  0  0  0
    0.7916   -5.2669    0.0000 H   0  0  0  0  0  0  0  0  0  0  0  0
    1.9876   -5.2565    0.0000 H   0  0  0  0  0  0  0  0  0  0  0  0
    4.0770   -3.6738    0.0000 H   0  0  0  0  0  0  0  0  0  0  0  0
    3.4531   -6.0339    0.0000 H   0  0  0  0  0  0  0  0  0  0  0  0
    4.5138   -4.1968    0.0000 H   0  0  0  0  0  0  0  0  0  0  0  0
    1.6742   -5.1470    0.0000 H   0  0  0  0  0  0  0  0  0  0  0  0
    4.4353   -1.0773    0.0000 H   0  0  0  0  0  0  0  0  0  0  0  0
    5.6630   -3.1873    0.0000 H   0  0  0  0  0  0  0  0  0  0  0  0
    5.2667   -1.2393    0.0000 H   0  0  0  0  0  0  0  0  0  0  0  0
    3.7779   -3.8180    0.0000 H   0  0  0  0  0  0  0  0  0  0  0  0
  1  2  1  0
  2  3  1  0
  3  4  1  0
  4  5  1  0
  5  6  1  0
  6  7  1  0
  7  8  1  0
  8  9  1  0
  9 10  1  0
 10 11  1  0
 11 12  1  0
 12 13  1  0
 13 14  1  0
 14 15  1  6
 14 16  1  0
 17 16  1  1
 17 18  1  0
 18 19  1  0
 19 20  1  6
 21 20  1  1
 10 22  1  0
 22 23  1  0
  5 24  1  0
 24 25  1  0
 25 26  1  6
 25 27  1  0
 27 28  1  0
 28 29  1  0
 29 30  2  3
 29 31  1  0
 31 32  1  0
 32 33  1  0
 32 34  1  0
 28 35  1  0
 35 36  1  0
 25 37  1  0
 37 38  1  0
 38 39  1  0
 39 40  1  0
 39 41  1  0
 41 42  1  0
 41  3  1  0
 24  4  1  0
 36 28  1  0
 11  6  1  0
 14 12  1  0
 19 17  1  0
 22  8  1  0
 21 17  1  0
 21 18  1  0
 21 19  1  0
  1 43  1  0
  1 44  1  0
  1 45  1  0
  2 46  1  0
  2 47  1  0
  3 48  1  6
  4 49  1  1
  5 50  1  6
  6 51  1  6
  7 52  1  0
  7 53  1  0
  8 54  1  6
  9 55  1  0
  9 56  1  0
 10 57  1  6
 11 58  1  6
 12 59  1  6
 13 60  1  0
 13 61  1  0
 15 62  1  0
 15 63  1  0
 15 64  1  0
 16 65  1  0
 16 66  1  0
 18 67  1  1
 20 68  1  0
 20 69  1  0
 22 70  1  6
 23 71  1  0
 23 72  1  0
 23 73  1  0
 24 74  1  1
 26 75  1  0
 26 76  1  0
 26 77  1  0
 27 78  1  0
 27 79  1  0
 30 80  1  0
 31 81  1  0
 31 82  1  0
 33 83  1  0
 33 84  1  0
 33 85  1  0
 34 86  1  0
 34 87  1  0
 35 88  1  0
 35 89  1  0
 36 90  1  0
 36 91  1  0
 37 92  1  0
 37 93  1  0
 38 94  1  0
 38 95  1  0
 39 96  1  1
 40 97  1  0
 40 98  1  0
 40 99  1  0
 41100  1  1
 42101  1  0
 42102  1  0
 42103  1  0
M  END
$$$$
