
     RDKit          2D

 39 41  0  0  0  0  0  0  0  0999 V2000
    4.3684    5.7579    0.0000 C   0  0  0  0  0  0  0  0  0  0  0  0
    3.8554    4.3484    0.0000 C   0  0  0  0  0  0  0  0  0  0  0  0
    3.3423    2.9388    0.0000 N   0  0  0  0  0  0  0  0  0  0  0  0
    1.8651    2.6784    0.0000 C   0  0  0  0  0  0  0  0  0  0  0  0
    1.8651    1.1784    0.0000 C   0  0  0  0  0  0  0  0  0  0  0  0
    0.5661    1.9284    0.0000 C   0  0  0  0  0  0  0  0  0  0  0  0
   -0.3981    3.0774    0.0000 C   0  0  0  0  0  0  0  0  0  0  0  0
   -1.3623    4.2265    0.0000 C   0  0  0  0  0  0  0  0  0  0  0  0
   -1.5472    2.1132    0.0000 C   0  0  0  0  0  0  0  0  0  0  0  0
   -2.6962    1.1491    0.0000 C   0  0  0  0  0  0  0  0  0  0  0  0
   -3.7192    0.0520    0.0000 F   0  0  0  0  0  0  0  0  0  0  0  0
   -3.6604    2.2981    0.0000 S   0  0  0  0  0  4  0  0  0  0  0  0
   -4.9595    1.5481    0.0000 C   0  0  0  0  0  0  0  0  0  0  0  0
   -2.6962    3.4472    0.0000 C   0  0  0  0  0  0  0  0  0  0  0  0
   -3.2093    4.8567    0.0000 O   0  0  0  0  0  0  0  0  0  0  0  0
   -4.1734    3.7077    0.0000 C   0  0  0  0  0  0  0  0  0  0  0  0
   -5.6507    3.9681    0.0000 O   0  0  0  0  0  0  0  0  0  0  0  0
    4.8814    7.1675    0.0000 H   0  0  0  0  0  0  0  0  0  0  0  0
    2.9589    6.2709    0.0000 H   0  0  0  0  0  0  0  0  0  0  0  0
    5.7779    5.2449    0.0000 H   0  0  0  0  0  0  0  0  0  0  0  0
    2.4458    4.8614    0.0000 H   0  0  0  0  0  0  0  0  0  0  0  0
    5.2649    3.8353    0.0000 H   0  0  0  0  0  0  0  0  0  0  0  0
    4.3065    1.7898    0.0000 H   0  0  0  0  0  0  0  0  0  0  0  0
    1.5615    3.9938    0.0000 H   0  0  0  0  0  0  0  0  0  0  0  0
    1.3521   -0.2312    0.0000 H   0  0  0  0  0  0  0  0  0  0  0  0
    3.3423    0.9179    0.0000 H   0  0  0  0  0  0  0  0  0  0  0  0
   -0.2508    0.6703    0.0000 H   0  0  0  0  0  0  0  0  0  0  0  0
    0.5226    4.0648    0.0000 H   0  0  0  0  0  0  0  0  0  0  0  0
   -2.3265    5.3756    0.0000 H   0  0  0  0  0  0  0  0  0  0  0  0
   -0.2132    5.1907    0.0000 H   0  0  0  0  0  0  0  0  0  0  0  0
   -1.9059    3.6435    0.0000 H   0  0  0  0  0  0  0  0  0  0  0  0
   -2.3641    3.3713    0.0000 H   0  0  0  0  0  0  0  0  0  0  0  0
   -0.7302    0.8552    0.0000 H   0  0  0  0  0  0  0  0  0  0  0  0
   -1.7321    0.0000    0.0000 H   0  0  0  0  0  0  0  0  0  0  0  0
   -6.2585    0.7981    0.0000 H   0  0  0  0  0  0  0  0  0  0  0  0
   -4.3734    0.1674    0.0000 H   0  0  0  0  0  0  0  0  0  0  0  0
   -5.8622    2.7461    0.0000 H   0  0  0  0  0  0  0  0  0  0  0  0
   -1.2190    3.1867    0.0000 H   0  0  0  0  0  0  0  0  0  0  0  0
   -6.7477    2.9452    0.0000 H   0  0  0  0  0  0  0  0  0  0  0  0
  1  2  1  0
  2  3  1  0
  3  4  1  0
  4  5  1  0
  5  6  1  0
  6  7  1  0
  7  8  1  0
  7  9  1  0
  9 10  1  0
 10 11  1  0
 10 12  1  0
 12 13  1  0
 12 14  1  0
 14 15  1  0
 15 16  1  0
 16 17  1  0
  6  4  1  0
 16 12  1  0
 16 14  1  0
  1 18  1  0
  1 19  1  0
  1 20  1  0
  2 21  1  0
  2 22  1  0
  3 23  1  0
  4 24  1  0
  5 25  1  0
  5 26  1  0
  6 27  1  0
  7 28  1  0
  8 29  1  0
  8 30  1  0
  8 31  1  0
  9 32  1  0
  9 33  1  0
 10 34  1  0
 13 35  1  0
 13 36  1  0
 13 37  1  0
 14 38  1  0
 17 39  1  0
M  END
$$$$
