
     RDKit          3D

 45 54  0  0  0  0  0  0  0  0999 V2000
   12.6389  -20.6995   -8.8303 C   0  0  0  0  0  0  0  0  0  0  0  0
   14.5347  -19.6125   -9.6139 C   0  0  0  0  0  0  0  0  0  0  0  0
   14.1661  -18.9037  -11.8278 C   0  0  0  0  0  0  0  0  0  0  0  0
   14.7520  -18.3510  -10.5514 C   0  0  0  0  0  0  0  0  0  0  0  0
   11.0946  -20.2557  -10.8379 C   0  0  0  0  0  0  0  0  0  0  0  0
   10.8331  -20.8852  -12.0391 O   0  0  0  0  0  0  0  0  0  0  0  0
   13.4220  -19.4224   -8.6784 N   0  0  0  0  0  0  0  0  0  0  0  0
   15.7212  -18.4041  -11.7806 C   0  0  0  0  0  0  0  0  0  0  0  0
   18.2642  -16.0085  -11.9999 C   0  0  0  0  0  0  0  0  0  0  0  0
   20.0384  -15.9524  -11.9473 C   0  0  0  0  0  0  0  0  0  0  0  0
   20.7665  -16.5297  -13.3335 C   0  0  0  0  0  0  0  0  0  0  0  0
   21.7383  -16.1426  -14.4498 C   0  0  0  0  0  0  0  0  0  0  0  0
   12.4512  -20.7755  -10.3571 C   0  0  0  0  0  0  0  0  0  0  0  0
   20.4242  -15.5111  -14.4445 C   0  0  0  0  0  0  0  0  0  0  0  0
   16.6419  -16.9652  -12.2502 C   0  0  0  0  0  0  0  0  0  0  0  0
   11.0810  -19.5239  -12.1387 C   0  0  0  0  0  0  0  0  0  0  0  0
   18.4177  -17.8709  -15.0385 C   0  0  0  0  0  0  0  0  0  0  0  0
   21.2054  -15.2912  -10.9556 C   0  0  0  0  0  0  0  0  0  0  0  0
   13.8543  -20.2368  -10.8963 C   0  0  0  0  0  0  0  0  0  0  0  0
   21.7763  -13.8004  -11.3759 C   0  0  0  0  0  0  0  0  0  0  0  0
   21.3361  -12.6619  -10.4304 C   0  0  0  0  0  0  0  0  0  0  0  0
   23.6061  -12.0493   -9.4585 N   0  0  0  0  0  0  0  0  0  0  0  0
   18.7217  -16.7779  -17.0840 C   0  0  0  0  0  0  0  0  0  0  0  0
   22.2199  -12.4474   -9.1137 C   0  0  0  0  0  0  0  0  0  0  0  0
   18.4822  -18.9123  -13.8279 C   0  0  0  0  0  0  0  0  0  0  0  0
   18.6347  -17.7407  -11.8668 S   0  0  0  0  0  4  0  0  0  0  0  0
   17.8886  -14.9149  -11.0231 C   0  0  0  0  0  0  0  0  0  0  0  0
   19.2889  -19.6982  -12.6853 C   0  0  0  0  0  0  0  0  0  0  0  0
   18.3437  -19.6194  -11.2377 C   0  0  0  0  0  0  0  0  0  0  0  0
   19.9672  -21.6712  -11.2373 C   0  0  0  0  0  0  0  0  0  0  0  0
   14.3963  -17.1073   -9.9893 O   0  0  0  0  0  0  0  0  0  0  0  0
   18.0623  -18.5308  -10.0742 C   0  0  0  0  0  0  0  0  0  0  0  0
   18.9677  -17.9806  -16.3466 O   0  0  0  0  0  0  0  0  0  0  0  0
   21.3507  -15.4276   -9.4996 C   0  0  0  0  0  0  0  0  0  0  0  0
   18.0338  -23.2192  -10.8247 C   0  0  0  0  0  0  0  0  0  0  0  0
   18.7491  -24.7584   -8.7496 C   0  0  0  0  0  0  0  0  0  0  0  0
   22.8162  -15.4935   -9.1736 N   0  0  0  0  0  0  0  0  0  0  0  0
   20.4934  -16.3843   -8.6745 C   0  0  0  0  0  0  0  0  0  0  0  0
   20.9290  -19.0591  -10.9983 C   0  0  0  0  0  0  0  0  0  0  0  0
   19.0174  -24.2958  -10.1517 C   0  0  0  0  0  0  0  0  0  0  0  0
   18.8508  -22.5627  -11.9911 C   0  0  0  0  0  0  0  0  0  0  0  0
   23.2665  -16.8428   -9.4610 C   0  0  0  0  0  0  0  0  0  0  0  0
   17.9253  -22.1782  -13.2466 C   0  0  0  0  0  0  0  0  0  0  0  0
   22.2841  -16.2442  -10.3709 C   0  0  0  0  0  0  0  0  0  0  0  0
   19.8078  -20.0705  -11.3990 C   0  0  0  0  0  0  0  0  0  0  0  0
  4  2  1  0
  4  3  1  0
  6  5  1  0
  7  1  1  0
  7  2  1  0
  8  3  1  0
  8  4  1  0
 10  9  1  0
 11 10  1  0
 12 11  1  0
 13  1  1  0
 13  5  1  0
 14 11  1  0
 14 12  1  0
 15  8  1  0
 15  9  1  0
 16  5  1  0
 16  6  1  0
 18 10  1  0
 19  2  1  0
 19  3  1  0
 19 13  1  0
 20 18  1  0
 21 20  1  0
 24 21  1  0
 24 22  1  0
 25 17  1  0
 26 17  1  0
 27  9  1  0
 27 26  1  0
 28 25  1  0
 29 28  1  0
 31  4  1  0
 31 26  1  0
 32 29  1  0
 33 17  1  0
 33 23  1  0
 34 18  1  0
 37 34  1  0
 38 34  1  0
 40 35  1  0
 40 36  1  0
 41 30  1  0
 41 35  1  0
 42 37  1  0
 43 41  1  0
 44 18  1  0
 44 34  1  0
 44 37  1  0
 44 42  1  0
 45 28  1  0
 45 29  1  0
 45 30  1  0
 45 39  1  0
M  END
$$$$
