
     RDKit          2D

 33 36  0  0  0  0  0  0  0  0999 V2000
   -3.2893   -4.9807    0.0000 O   0  0  0  0  0  0  0  0  0  0  0  0
   -1.8121   -4.7202    0.0000 N   0  0  0  0  0  0  0  0  0  0  0  0
   -1.2990   -3.3107    0.0000 C   0  0  0  0  0  0  0  0  0  0  0  0
   -1.2990   -1.8107    0.0000 N   0  0  0  0  0  0  0  0  0  0  0  0
   -0.0000   -1.0607    0.0000 C   0  0  0  0  0  0  0  0  0  0  0  0
    1.0607    0.0000    0.0000 C   0  0  0  0  0  0  0  0  0  0  0  0
    0.0000    1.0607    0.0000 C   0  0  0  0  0  0  0  0  0  0  0  0
   -1.0607    2.1213    0.0000 C   0  0  0  0  0  0  0  0  0  0  0  0
   -2.1213    1.0607    0.0000 C   0  0  0  0  0  0  0  0  0  0  0  0
   -1.0607    0.0000    0.0000 N   0  0  0  0  0  0  0  0  0  0  0  0
    1.2990   -1.8107    0.0000 N   0  0  0  0  0  0  0  0  0  0  0  0
    2.7990   -1.8107    0.0000 C   0  0  0  0  0  0  0  0  0  0  0  0
    2.7990   -3.3107    0.0000 C   0  0  0  0  0  0  0  0  0  0  0  0
    1.2990   -3.3107    0.0000 C   0  0  0  0  0  0  0  0  0  0  0  0
   -0.0000   -4.0607    0.0000 C   0  0  0  0  0  0  0  0  0  0  0  0
    0.8169   -5.3187    0.0000 F   0  0  0  0  0  0  0  0  0  0  0  0
   -3.8023   -6.3902    0.0000 H   0  0  0  0  0  0  0  0  0  0  0  0
   -1.2761   -5.5456    0.0000 H   0  0  0  0  0  0  0  0  0  0  0  0
   -2.7762   -3.0502    0.0000 H   0  0  0  0  0  0  0  0  0  0  0  0
   -2.5981   -1.0607    0.0000 H   0  0  0  0  0  0  0  0  0  0  0  0
    2.1213    1.0607    0.0000 H   0  0  0  0  0  0  0  0  0  0  0  0
    2.1213   -1.0607    0.0000 H   0  0  0  0  0  0  0  0  0  0  0  0
    1.0607    2.1213    0.0000 H   0  0  0  0  0  0  0  0  0  0  0  0
   -2.1213    3.1820    0.0000 H   0  0  0  0  0  0  0  0  0  0  0  0
   -0.0000    3.1820    0.0000 H   0  0  0  0  0  0  0  0  0  0  0  0
   -3.1820    0.0000    0.0000 H   0  0  0  0  0  0  0  0  0  0  0  0
   -3.1820    2.1213    0.0000 H   0  0  0  0  0  0  0  0  0  0  0  0
    4.2990   -1.8107    0.0000 H   0  0  0  0  0  0  0  0  0  0  0  0
    2.7990   -0.3107    0.0000 H   0  0  0  0  0  0  0  0  0  0  0  0
    2.7990   -4.8107    0.0000 H   0  0  0  0  0  0  0  0  0  0  0  0
    4.2990   -3.3107    0.0000 H   0  0  0  0  0  0  0  0  0  0  0  0
    1.8610   -4.7014    0.0000 H   0  0  0  0  0  0  0  0  0  0  0  0
   -0.5360   -4.8861    0.0000 H   0  0  0  0  0  0  0  0  0  0  0  0
  1  2  1  0
  2  3  1  0
  3  4  1  0
  5  4  1  6
  5  6  1  0
  6  7  1  0
  7  8  1  0
  8  9  1  0
  9 10  1  0
  5 11  1  0
 11 12  1  0
 12 13  1  0
 13 14  1  0
 14 15  1  0
 15 16  1  0
 15  3  1  0
 10  5  1  0
 14 11  1  0
 10  7  1  0
  1 17  1  0
  2 18  1  0
  3 19  1  6
  4 20  1  0
  6 21  1  0
  6 22  1  0
  7 23  1  1
  8 24  1  0
  8 25  1  0
  9 26  1  0
  9 27  1  0
 12 28  1  0
 12 29  1  0
 13 30  1  0
 13 31  1  0
 14 32  1  1
 15 33  1  1
M  END
$$$$
