
     RDKit          2D

104113  0  0  0  0  0  0  0  0999 V2000
  -11.5281    3.7150    0.0000 C   0  0  0  0  0  0  0  0  0  0  0  0
  -10.0657    4.0487    0.0000 C   0  0  0  0  0  0  0  0  0  0  0  0
   -9.0455    2.9492    0.0000 C   0  0  0  0  0  0  0  0  0  0  0  0
   -8.0252    1.8496    0.0000 C   0  0  0  0  0  0  0  0  0  0  0  0
   -7.0049    0.7500    0.0000 C   0  0  0  0  0  0  0  0  0  0  0  0
   -7.0049   -0.7500    0.0000 C   0  0  0  0  0  0  0  0  0  0  0  0
   -6.3541   -2.1015    0.0000 C   0  0  0  0  0  0  0  0  0  0  0  0
   -5.1814   -3.0367    0.0000 C   0  0  0  0  0  0  0  0  0  0  0  0
   -6.3793   -3.9394    0.0000 Cl  0  0  0  0  0  0  0  0  0  0  0  0
   -3.7190   -3.3705    0.0000 C   0  0  0  0  0  0  0  0  0  0  0  0
   -2.2566   -3.0367    0.0000 C   0  0  0  0  0  0  0  0  0  0  0  0
   -2.4801   -4.5199    0.0000 C   0  0  0  0  0  0  0  0  0  0  0  0
   -2.7037   -6.0032    0.0000 C   0  0  0  0  0  0  0  0  0  0  0  0
   -3.9634   -4.2964    0.0000 O   0  0  0  0  0  0  0  0  0  0  0  0
   -0.9969   -4.7435    0.0000 C   0  0  0  0  0  0  0  0  0  0  0  0
    0.4863   -4.9671    0.0000 C   0  0  0  0  0  0  0  0  0  0  0  0
   -1.0838   -2.1015    0.0000 C   0  0  0  0  0  0  0  0  0  0  0  0
    0.9221   -1.4990    0.0000 C   0  0  0  0  0  0  0  0  0  0  0  0
    0.8660    0.0000    0.0000 C   0  0  0  0  0  0  0  0  0  0  0  0
   -0.4330    0.7500    0.0000 C   0  0  0  0  0  0  0  0  0  0  0  0
   -1.0838    2.1015    0.0000 C   0  0  0  0  0  0  0  0  0  0  0  0
   -2.2566    3.0367    0.0000 C   0  0  0  0  0  0  0  0  0  0  0  0
   -3.7190    3.3705    0.0000 C   0  0  0  0  0  0  0  0  0  0  0  0
   -2.8740    4.6098    0.0000 C   0  0  0  0  0  0  0  0  0  0  0  0
   -4.5640    4.6098    0.0000 N   0  0  0  0  0  0  0  0  0  0  0  0
   -5.1814    3.0367    0.0000 C   0  0  0  0  0  0  0  0  0  0  0  0
   -6.3541    2.1015    0.0000 C   0  0  0  0  0  0  0  0  0  0  0  0
   -7.7504    2.6495    0.0000 C   0  0  0  0  0  0  0  0  0  0  0  0
   -7.9740    4.1327    0.0000 C   0  0  0  0  0  0  0  0  0  0  0  0
   -9.4364    3.7989    0.0000 C   0  0  0  0  0  0  0  0  0  0  0  0
  -10.6091    4.7342    0.0000 C   0  0  0  0  0  0  0  0  0  0  0  0
  -10.6091    6.2342    0.0000 C   0  0  0  0  0  0  0  0  0  0  0  0
   -9.4364    7.1694    0.0000 C   0  0  0  0  0  0  0  0  0  0  0  0
   -9.8785    8.6028    0.0000 C   0  0  0  0  0  0  0  0  0  0  0  0
   -8.8583    9.7023    0.0000 C   0  0  0  0  0  0  0  0  0  0  0  0
   -7.3959    9.3686    0.0000 C   0  0  0  0  0  0  0  0  0  0  0  0
   -6.9537    7.9352    0.0000 C   0  0  0  0  0  0  0  0  0  0  0  0
   -7.9740    6.8356    0.0000 C   0  0  0  0  0  0  0  0  0  0  0  0
   -7.3232    5.4842    0.0000 C   0  0  0  0  0  0  0  0  0  0  0  0
   -5.8232    5.4842    0.0000 C   0  0  0  0  0  0  0  0  0  0  0  0
   -5.8232    6.9842    0.0000 C   0  0  0  0  0  0  0  0  0  0  0  0
   -4.3232    6.9842    0.0000 N   0  0  0  0  0  0  0  0  0  0  0  0
   -4.3232    5.4842    0.0000 O   0  0  0  0  0  0  0  0  0  0  0  0
   -6.5777    3.5847    0.0000 C   0  0  0  0  0  0  0  0  0  0  0  0
   -0.4330   -0.7500    0.0000 C   0  0  0  0  0  0  0  0  0  0  0  0
  -12.6748    4.6820    0.0000 H   0  0  0  0  0  0  0  0  0  0  0  0
  -11.9702    2.2816    0.0000 H   0  0  0  0  0  0  0  0  0  0  0  0
   -9.6236    5.4821    0.0000 H   0  0  0  0  0  0  0  0  0  0  0  0
  -10.1450    1.9289    0.0000 H   0  0  0  0  0  0  0  0  0  0  0  0
   -8.2254    4.2052    0.0000 H   0  0  0  0  0  0  0  0  0  0  0  0
   -8.9922    0.7029    0.0000 H   0  0  0  0  0  0  0  0  0  0  0  0
   -7.2052    3.1056    0.0000 H   0  0  0  0  0  0  0  0  0  0  0  0
   -8.4576    0.3763    0.0000 H   0  0  0  0  0  0  0  0  0  0  0  0
   -8.4576   -0.3763    0.0000 H   0  0  0  0  0  0  0  0  0  0  0  0
   -8.1516   -1.7170    0.0000 H   0  0  0  0  0  0  0  0  0  0  0  0
   -7.8251   -2.3950    0.0000 H   0  0  0  0  0  0  0  0  0  0  0  0
   -6.9677   -3.4702    0.0000 H   0  0  0  0  0  0  0  0  0  0  0  0
   -5.1403   -4.5361    0.0000 H   0  0  0  0  0  0  0  0  0  0  0  0
   -4.7087   -4.4976    0.0000 H   0  0  0  0  0  0  0  0  0  0  0  0
   -3.1990   -4.7775    0.0000 H   0  0  0  0  0  0  0  0  0  0  0  0
   -0.8758   -3.6227    0.0000 H   0  0  0  0  0  0  0  0  0  0  0  0
   -2.9273   -7.4864    0.0000 H   0  0  0  0  0  0  0  0  0  0  0  0
   -1.2588   -6.4059    0.0000 H   0  0  0  0  0  0  0  0  0  0  0  0
   -4.2031   -5.9621    0.0000 H   0  0  0  0  0  0  0  0  0  0  0  0
   -5.0346   -5.3464    0.0000 H   0  0  0  0  0  0  0  0  0  0  0  0
   -1.0380   -6.2429    0.0000 H   0  0  0  0  0  0  0  0  0  0  0  0
   -0.4211   -3.3584    0.0000 H   0  0  0  0  0  0  0  0  0  0  0  0
    1.9696   -5.1906    0.0000 H   0  0  0  0  0  0  0  0  0  0  0  0
    0.2628   -6.4503    0.0000 H   0  0  0  0  0  0  0  0  0  0  0  0
    1.0622   -3.5820    0.0000 H   0  0  0  0  0  0  0  0  0  0  0  0
    0.1942   -2.8868    0.0000 H   0  0  0  0  0  0  0  0  0  0  0  0
    2.4211   -1.4429    0.0000 H   0  0  0  0  0  0  0  0  0  0  0  0
    1.3392   -2.9398    0.0000 H   0  0  0  0  0  0  0  0  0  0  0  0
    2.3660    0.0000    0.0000 H   0  0  0  0  0  0  0  0  0  0  0  0
    0.7827    1.6286    0.0000 H   0  0  0  0  0  0  0  0  0  0  0  0
    0.3871    2.3950    0.0000 H   0  0  0  0  0  0  0  0  0  0  0  0
   -0.4703    3.4702    0.0000 H   0  0  0  0  0  0  0  0  0  0  0  0
   -0.9575    3.7867    0.0000 H   0  0  0  0  0  0  0  0  0  0  0  0
   -2.1146    4.5300    0.0000 H   0  0  0  0  0  0  0  0  0  0  0  0
   -2.0290    5.8492    0.0000 H   0  0  0  0  0  0  0  0  0  0  0  0
   -3.7281    5.8429    0.0000 H   0  0  0  0  0  0  0  0  0  0  0  0
   -1.5409    3.9222    0.0000 H   0  0  0  0  0  0  0  0  0  0  0  0
   -3.7532    5.8719    0.0000 H   0  0  0  0  0  0  0  0  0  0  0  0
   -6.0349    4.3162    0.0000 H   0  0  0  0  0  0  0  0  0  0  0  0
   -5.4346    4.5152    0.0000 H   0  0  0  0  0  0  0  0  0  0  0  0
   -8.9232    1.7142    0.0000 H   0  0  0  0  0  0  0  0  0  0  0  0
   -9.3132    2.3040    0.0000 H   0  0  0  0  0  0  0  0  0  0  0  0
  -10.4864    2.7277    0.0000 H   0  0  0  0  0  0  0  0  0  0  0  0
  -11.7011    3.7058    0.0000 H   0  0  0  0  0  0  0  0  0  0  0  0
  -12.0715    5.0679    0.0000 H   0  0  0  0  0  0  0  0  0  0  0  0
  -12.1013    6.0811    0.0000 H   0  0  0  0  0  0  0  0  0  0  0  0
  -11.2600    7.5856    0.0000 H   0  0  0  0  0  0  0  0  0  0  0  0
  -11.3409    8.9365    0.0000 H   0  0  0  0  0  0  0  0  0  0  0  0
   -8.2756   11.0846    0.0000 H   0  0  0  0  0  0  0  0  0  0  0  0
  -10.1183   10.5162    0.0000 H   0  0  0  0  0  0  0  0  0  0  0  0
   -5.9075    9.5551    0.0000 H   0  0  0  0  0  0  0  0  0  0  0  0
   -7.3211   10.8667    0.0000 H   0  0  0  0  0  0  0  0  0  0  0  0
   -5.4540    7.9652    0.0000 H   0  0  0  0  0  0  0  0  0  0  0  0
   -6.4807    6.9776    0.0000 H   0  0  0  0  0  0  0  0  0  0  0  0
   -6.0060    3.9954    0.0000 H   0  0  0  0  0  0  0  0  0  0  0  0
   -5.8232    8.4842    0.0000 H   0  0  0  0  0  0  0  0  0  0  0  0
   -7.2786    7.3471    0.0000 H   0  0  0  0  0  0  0  0  0  0  0  0
   -3.2625    8.0448    0.0000 H   0  0  0  0  0  0  0  0  0  0  0  0
    0.8808   -1.4739    0.0000 H   0  0  0  0  0  0  0  0  0  0  0  0
  1  2  2  3
  2  3  1  0
  3  4  1  0
  4  5  1  0
  5  6  1  0
  6  7  1  0
  7  8  1  0
  8  9  1  0
  8 10  1  0
 10 11  1  0
 11 12  1  0
 12 13  1  0
 12 14  1  0
 12 15  1  0
 15 16  1  0
 11 17  1  0
 17 18  1  0
 18 19  1  0
 19 20  1  0
 20 21  1  0
 21 22  1  0
 22 23  1  0
 23 24  1  0
 23 25  1  0
 23 26  1  0
 26 27  1  0
 27 28  1  0
 28 29  1  0
 29 30  1  0
 30 31  1  0
 31 32  1  0
 32 33  1  0
 33 34  2  0
 34 35  1  0
 35 36  1  0
 36 37  1  0
 37 38  1  0
 38 39  1  0
 39 40  1  0
 40 41  1  0
 41 42  1  0
 42 43  1  0
 29 44  1  0
 20 45  1  0
 27  5  1  0
 44 28  1  0
 45 17  1  0
 45 19  1  0
 44 26  1  0
 44 27  1  0
 39 29  1  0
 43 40  1  0
 38 33  1  0
 39 37  1  0
  1 46  1  0
  1 47  1  0
  2 48  1  0
  3 49  1  0
  3 50  1  0
  4 51  1  0
  4 52  1  0
  5 53  1  0
  6 54  1  0
  6 55  1  0
  7 56  1  0
  7 57  1  0
  8 58  1  0
 10 59  1  0
 10 60  1  0
 11 61  1  0
 13 62  1  0
 13 63  1  0
 13 64  1  0
 14 65  1  0
 15 66  1  0
 15 67  1  0
 16 68  1  0
 16 69  1  0
 16 70  1  0
 17 71  1  0
 18 72  1  0
 18 73  1  0
 19 74  1  0
 20 75  1  0
 21 76  1  0
 21 77  1  0
 22 78  1  0
 22 79  1  0
 24 80  1  0
 24 81  1  0
 24 82  1  0
 25 83  1  0
 25 84  1  0
 26 85  1  0
 28 86  1  0
 30 87  1  0
 30 88  1  0
 31 89  1  0
 31 90  1  0
 32 91  1  0
 32 92  1  0
 34 93  1  0
 35 94  1  0
 35 95  1  0
 36 96  1  0
 36 97  1  0
 37 98  1  0
 38 99  1  0
 40100  1  0
 41101  1  0
 41102  1  0
 42103  1  0
 45104  1  0
M  END
$$$$
