
     RDKit          2D

 24 28  0  0  0  0  0  0  0  0999 V2000
   -3.4330   -3.3481    0.0000 C   0  0  0  0  0  0  0  0  0  0  0  0
   -1.9330   -3.3481    0.0000 C   0  0  0  0  0  0  0  0  0  0  0  0
   -1.1830   -2.0490    0.0000 C   0  0  0  0  0  0  0  0  0  0  0  0
   -1.9330   -0.7500    0.0000 C   0  0  0  0  0  0  0  0  0  0  0  0
   -1.9330    0.7500    0.0000 C   0  0  0  0  0  0  0  0  0  0  0  0
   -0.4330    0.7500    0.0000 C   0  0  0  0  0  0  0  0  0  0  0  0
   -1.2385    0.0470    0.0000 C   0  0  0  0  0  0  0  0  0  0  0  0
   -3.4041   -1.3597    0.0000 C   0  0  0  0  0  0  0  0  0  0  0  0
   -4.1830   -2.0490    0.0000 C   0  0  0  0  0  0  0  0  0  0  0  0
   -3.4330   -0.7500    0.0000 O   0  0  0  0  0  0  0  0  0  0  0  0
    0.8660    0.0000    0.0000 C   0  0  0  0  0  0  0  0  0  0  0  0
   -0.4330   -0.7500    0.0000 C   0  0  0  0  0  0  0  0  0  0  0  0
   -4.1830   -4.6471    0.0000 H   0  0  0  0  0  0  0  0  0  0  0  0
   -1.1830   -4.6471    0.0000 H   0  0  0  0  0  0  0  0  0  0  0  0
    0.1160   -2.7990    0.0000 H   0  0  0  0  0  0  0  0  0  0  0  0
   -1.7502    2.2388    0.0000 H   0  0  0  0  0  0  0  0  0  0  0  0
   -3.4218    0.5672    0.0000 H   0  0  0  0  0  0  0  0  0  0  0  0
   -1.3575    2.5350    0.0000 H   0  0  0  0  0  0  0  0  0  0  0  0
   -2.8992    2.2347    0.0000 H   0  0  0  0  0  0  0  0  0  0  0  0
   -4.0071    1.4170    0.0000 H   0  0  0  0  0  0  0  0  0  0  0  0
   -4.5584   -0.0537    0.0000 H   0  0  0  0  0  0  0  0  0  0  0  0
   -5.6830   -2.0490    0.0000 H   0  0  0  0  0  0  0  0  0  0  0  0
    1.8302    1.1491    0.0000 H   0  0  0  0  0  0  0  0  0  0  0  0
    1.8302   -1.1491    0.0000 H   0  0  0  0  0  0  0  0  0  0  0  0
  1  2  2  0
  2  3  1  0
  3  4  1  0
  4  5  1  0
  5  6  1  0
  6  7  1  6
  7  8  1  0
  8  9  1  0
  9 10  1  0
  6 11  1  0
 12 11  1  6
  9  1  1  0
 12  3  1  0
  4 10  1  6
 12  4  1  0
 12  6  1  0
  1 13  1  0
  2 14  1  0
  3 15  1  1
  5 16  1  0
  5 17  1  0
  7 18  1  0
  7 19  1  0
  8 20  1  0
  8 21  1  0
  9 22  1  6
 11 23  1  0
 11 24  1  0
M  END
$$$$
