
     RDKit          2D

 93 96  0  0  0  0  0  0  0  0999 V2000
    2.7865    2.0658    0.0000 C   0  0  0  0  0  0  0  0  0  0  0  0
    3.0469    0.5886    0.0000 C   0  0  0  0  0  0  0  0  0  0  0  0
    3.3074   -0.8886    0.0000 C   0  0  0  0  0  0  0  0  0  0  0  0
    3.5679   -2.3658    0.0000 C   0  0  0  0  0  0  0  0  0  0  0  0
    1.8302   -1.1491    0.0000 O   0  0  0  0  0  0  0  0  0  0  0  0
    0.8660    0.0000    0.0000 C   0  0  0  0  0  0  0  0  0  0  0  0
    1.8302    1.1491    0.0000 C   0  0  0  0  0  0  0  0  0  0  0  0
   -0.4330    0.7500    0.0000 C   0  0  0  0  0  0  0  0  0  0  0  0
   -1.4937    1.8107    0.0000 C   0  0  0  0  0  0  0  0  0  0  0  0
   -2.9937    1.8107    0.0000 C   0  0  0  0  0  0  0  0  0  0  0  0
   -4.0543    0.7500    0.0000 C   0  0  0  0  0  0  0  0  0  0  0  0
   -5.5032    0.3618    0.0000 C   0  0  0  0  0  0  0  0  0  0  0  0
   -6.9521   -0.0265    0.0000 O   0  0  0  0  0  0  0  0  0  0  0  0
   -5.8915    1.8107    0.0000 O   0  0  0  0  0  0  0  0  0  0  0  0
   -5.8915    1.8107    0.0000 O   0  0  0  0  0  0  0  0  0  0  0  0
   -4.0543   -0.7500    0.0000 C   0  0  0  0  0  0  0  0  0  0  0  0
   -5.4723   -1.2393    0.0000 C   0  0  0  0  0  0  0  0  0  0  0  0
   -6.5004   -2.3315    0.0000 N   0  0  0  0  0  0  0  0  0  0  0  0
   -6.9032   -3.7764    0.0000 C   0  0  0  0  0  0  0  0  0  0  0  0
   -8.4025   -3.7311    0.0000 N   0  0  0  0  0  0  0  0  0  0  0  0
   -9.1130   -2.4100    0.0000 C   0  0  0  0  0  0  0  0  0  0  0  0
   -6.5884   -5.2430    0.0000 N   0  0  0  0  0  0  0  0  0  0  0  0
   -5.6281   -6.3953    0.0000 O   0  0  0  0  0  0  0  0  0  0  0  0
   -4.2423   -6.9693    0.0000 C   0  0  0  0  0  0  0  0  0  0  0  0
   -2.7484   -6.8336    0.0000 N   0  0  0  0  0  0  0  0  0  0  0  0
   -2.2591   -8.2515    0.0000 C   0  0  0  0  0  0  0  0  0  0  0  0
   -0.8412   -7.7622    0.0000 O   0  0  0  0  0  0  0  0  0  0  0  0
   -1.7698   -9.6695    0.0000 C   0  0  0  0  0  0  0  0  0  0  0  0
   -1.7950  -11.1693    0.0000 C   0  0  0  0  0  0  0  0  0  0  0  0
   -3.0812  -10.3976    0.0000 C   0  0  0  0  0  0  0  0  0  0  0  0
   -1.4888   -6.0192    0.0000 C   0  0  0  0  0  0  0  0  0  0  0  0
   -0.7519   -4.7126    0.0000 C   0  0  0  0  0  0  0  0  0  0  0  0
    0.2084   -5.8649    0.0000 C   0  0  0  0  0  0  0  0  0  0  0  0
   -0.7066   -3.2133    0.0000 C   0  0  0  0  0  0  0  0  0  0  0  0
    0.6792   -3.7873    0.0000 C   0  0  0  0  0  0  0  0  0  0  0  0
    0.3216   -2.1211    0.0000 C   0  0  0  0  0  0  0  0  0  0  0  0
   -1.4937   -1.8107    0.0000 C   0  0  0  0  0  0  0  0  0  0  0  0
   -2.9937   -1.8107    0.0000 C   0  0  0  0  0  0  0  0  0  0  0  0
   -0.4330   -0.7500    0.0000 C   0  0  0  0  0  0  0  0  0  0  0  0
    2.5260    3.5430    0.0000 H   0  0  0  0  0  0  0  0  0  0  0  0
    4.2637    2.3263    0.0000 H   0  0  0  0  0  0  0  0  0  0  0  0
    1.2901    2.1705    0.0000 H   0  0  0  0  0  0  0  0  0  0  0  0
    1.5506    0.6933    0.0000 H   0  0  0  0  0  0  0  0  0  0  0  0
    4.5242    0.8491    0.0000 H   0  0  0  0  0  0  0  0  0  0  0  0
    4.7846   -0.6281    0.0000 H   0  0  0  0  0  0  0  0  0  0  0  0
    3.8284   -3.8430    0.0000 H   0  0  0  0  0  0  0  0  0  0  0  0
    5.0451   -2.1053    0.0000 H   0  0  0  0  0  0  0  0  0  0  0  0
    2.0907   -2.6263    0.0000 H   0  0  0  0  0  0  0  0  0  0  0  0
    2.4877    2.4973    0.0000 H   0  0  0  0  0  0  0  0  0  0  0  0
    3.1784    0.4916    0.0000 H   0  0  0  0  0  0  0  0  0  0  0  0
    0.6811    2.1132    0.0000 H   0  0  0  0  0  0  0  0  0  0  0  0
    0.1650    2.1256    0.0000 H   0  0  0  0  0  0  0  0  0  0  0  0
   -1.7024    3.2961    0.0000 H   0  0  0  0  0  0  0  0  0  0  0  0
   -0.1946    2.5607    0.0000 H   0  0  0  0  0  0  0  0  0  0  0  0
   -4.1916    2.7134    0.0000 H   0  0  0  0  0  0  0  0  0  0  0  0
   -2.7850    3.2961    0.0000 H   0  0  0  0  0  0  0  0  0  0  0  0
   -4.9571    1.9479    0.0000 H   0  0  0  0  0  0  0  0  0  0  0  0
   -8.0128    1.0342    0.0000 H   0  0  0  0  0  0  0  0  0  0  0  0
   -7.3769    2.0194    0.0000 H   0  0  0  0  0  0  0  0  0  0  0  0
   -7.2822    2.3726    0.0000 H   0  0  0  0  0  0  0  0  0  0  0  0
   -5.2601   -1.6423    0.0000 H   0  0  0  0  0  0  0  0  0  0  0  0
   -5.7911    0.2264    0.0000 H   0  0  0  0  0  0  0  0  0  0  0  0
   -6.9558   -1.0177    0.0000 H   0  0  0  0  0  0  0  0  0  0  0  0
   -9.1914   -5.0069    0.0000 H   0  0  0  0  0  0  0  0  0  0  0  0
   -9.8234   -1.0889    0.0000 H   0  0  0  0  0  0  0  0  0  0  0  0
  -10.4341   -3.1204    0.0000 H   0  0  0  0  0  0  0  0  0  0  0  0
   -7.7919   -1.6996    0.0000 H   0  0  0  0  0  0  0  0  0  0  0  0
   -7.9370   -5.8997    0.0000 H   0  0  0  0  0  0  0  0  0  0  0  0
   -5.2704   -8.0615    0.0000 H   0  0  0  0  0  0  0  0  0  0  0  0
   -3.7549   -8.3880    0.0000 H   0  0  0  0  0  0  0  0  0  0  0  0
   -3.6771   -8.7408    0.0000 H   0  0  0  0  0  0  0  0  0  0  0  0
    0.4030   -8.6002    0.0000 H   0  0  0  0  0  0  0  0  0  0  0  0
   -0.2708   -9.6162    0.0000 H   0  0  0  0  0  0  0  0  0  0  0  0
   -0.3223  -11.4545    0.0000 H   0  0  0  0  0  0  0  0  0  0  0  0
   -2.3316  -12.5700    0.0000 H   0  0  0  0  0  0  0  0  0  0  0  0
   -4.0646  -11.5303    0.0000 H   0  0  0  0  0  0  0  0  0  0  0  0
   -4.1610   -9.3563    0.0000 H   0  0  0  0  0  0  0  0  0  0  0  0
   -0.9975   -7.4364    0.0000 H   0  0  0  0  0  0  0  0  0  0  0  0
   -0.1045   -6.5970    0.0000 H   0  0  0  0  0  0  0  0  0  0  0  0
    0.7423   -4.5810    0.0000 H   0  0  0  0  0  0  0  0  0  0  0  0
    1.1688   -7.0172    0.0000 H   0  0  0  0  0  0  0  0  0  0  0  0
    1.4692   -5.0522    0.0000 H   0  0  0  0  0  0  0  0  0  0  0  0
   -0.8182   -6.9586    0.0000 H   0  0  0  0  0  0  0  0  0  0  0  0
    2.1247   -4.1882    0.0000 H   0  0  0  0  0  0  0  0  0  0  0  0
    1.2533   -2.4015    0.0000 H   0  0  0  0  0  0  0  0  0  0  0  0
    0.4576   -5.2709    0.0000 H   0  0  0  0  0  0  0  0  0  0  0  0
    1.5834   -1.3101    0.0000 H   0  0  0  0  0  0  0  0  0  0  0  0
    1.4138   -3.1493    0.0000 H   0  0  0  0  0  0  0  0  0  0  0  0
   -0.4894   -0.8592    0.0000 H   0  0  0  0  0  0  0  0  0  0  0  0
   -0.6014   -3.0164    0.0000 H   0  0  0  0  0  0  0  0  0  0  0  0
   -2.6054   -3.2595    0.0000 H   0  0  0  0  0  0  0  0  0  0  0  0
   -4.2927   -2.5607    0.0000 H   0  0  0  0  0  0  0  0  0  0  0  0
   -1.3253    0.4557    0.0000 H   0  0  0  0  0  0  0  0  0  0  0  0
  1  2  1  0
  2  3  1  0
  3  4  1  0
  3  5  1  0
  5  6  1  0
  6  7  1  0
  6  8  1  0
  8  9  1  0
  9 10  1  0
 10 11  1  0
 11 12  1  0
 12 13  1  0
 12 14  1  0
 12 15  1  0
 11 16  1  0
 16 17  1  0
 17 18  1  0
 18 19  2  0
 19 20  1  0
 20 21  1  0
 19 22  1  0
 22 23  1  0
 23 24  1  0
 24 25  1  0
 25 26  1  0
 26 27  1  0
 26 28  1  0
 28 29  1  0
 29 30  1  0
 25 31  1  0
 31 32  1  0
 32 33  1  0
 32 34  1  0
 34 35  1  0
 34 36  1  0
 34 37  1  0
 37 38  1  0
 37 39  1  0
 39  6  1  0
 39  8  1  0
 38 16  1  0
 30 28  1  0
  1 40  1  0
  1 41  1  0
  1 42  1  0
  2 43  1  0
  2 44  1  0
  3 45  1  0
  4 46  1  0
  4 47  1  0
  4 48  1  0
  7 49  1  0
  7 50  1  0
  7 51  1  0
  8 52  1  0
  9 53  1  0
  9 54  1  0
 10 55  1  0
 10 56  1  0
 11 57  1  0
 13 58  1  0
 14 59  1  0
 15 60  1  0
 16 61  1  0
 17 62  1  0
 17 63  1  0
 20 64  1  0
 21 65  1  0
 21 66  1  0
 21 67  1  0
 22 68  1  0
 24 69  1  0
 24 70  1  0
 26 71  1  0
 27 72  1  0
 28 73  1  0
 29 74  1  0
 29 75  1  0
 30 76  1  0
 30 77  1  0
 31 78  1  0
 31 79  1  0
 32 80  1  0
 33 81  1  0
 33 82  1  0
 33 83  1  0
 35 84  1  0
 35 85  1  0
 35 86  1  0
 36 87  1  0
 36 88  1  0
 36 89  1  0
 37 90  1  0
 38 91  1  0
 38 92  1  0
 39 93  1  0
M  END
$$$$
