
     RDKit          2D

 31 34  0  0  0  0  0  0  0  0999 V2000
   -1.7321    3.0000    0.0000 O   0  0  0  0  0  0  0  0  0  0  0  0
   -0.4330    2.2500    0.0000 C   0  0  0  0  0  0  0  0  0  0  0  0
    0.8660    3.0000    0.0000 C   0  0  0  0  0  0  0  0  0  0  0  0
    2.1651    2.2500    0.0000 C   0  0  0  0  0  0  0  0  0  0  0  0
    2.1651    0.7500    0.0000 C   0  0  0  0  0  0  0  0  0  0  0  0
    0.8660    0.0000    0.0000 C   0  0  0  0  0  0  0  0  0  0  0  0
   -0.4330    0.7500    0.0000 C   0  0  0  0  0  0  0  0  0  0  0  0
   -0.4330   -0.7500    0.0000 C   0  0  0  0  0  0  0  0  0  0  0  0
    0.6651   -1.8481    0.0000 C   0  0  0  0  0  0  0  0  0  0  0  0
    2.1651   -1.8481    0.0000 C   0  0  0  0  0  0  0  0  0  0  0  0
    2.9151   -0.5490    0.0000 C   0  0  0  0  0  0  0  0  0  0  0  0
    4.0641    0.4151    0.0000 C   0  0  0  0  0  0  0  0  0  0  0  0
    5.2132    1.3793    0.0000 C   0  0  0  0  0  0  0  0  0  0  0  0
    6.6227    1.8924    0.0000 C   0  0  0  0  0  0  0  0  0  0  0  0
    6.3623    0.4151    0.0000 C   0  0  0  0  0  0  0  0  0  0  0  0
   -1.7321    4.5000    0.0000 H   0  0  0  0  0  0  0  0  0  0  0  0
    0.8660    4.5000    0.0000 H   0  0  0  0  0  0  0  0  0  0  0  0
    3.4641    3.0000    0.0000 H   0  0  0  0  0  0  0  0  0  0  0  0
   -1.2455   -1.8281    0.0000 H   0  0  0  0  0  0  0  0  0  0  0  0
    0.9255   -3.3253    0.0000 H   0  0  0  0  0  0  0  0  0  0  0  0
   -0.5378   -2.4610    0.0000 H   0  0  0  0  0  0  0  0  0  0  0  0
    3.5746   -2.3611    0.0000 H   0  0  0  0  0  0  0  0  0  0  0  0
    1.9046   -3.3253    0.0000 H   0  0  0  0  0  0  0  0  0  0  0  0
    4.0641   -1.5132    0.0000 H   0  0  0  0  0  0  0  0  0  0  0  0
    4.7994   -0.7171    0.0000 H   0  0  0  0  0  0  0  0  0  0  0  0
    3.0999    1.5642    0.0000 H   0  0  0  0  0  0  0  0  0  0  0  0
    4.4632    2.6784    0.0000 H   0  0  0  0  0  0  0  0  0  0  0  0
    6.3623    3.3696    0.0000 H   0  0  0  0  0  0  0  0  0  0  0  0
    8.1227    1.8924    0.0000 H   0  0  0  0  0  0  0  0  0  0  0  0
    7.7718   -0.0979    0.0000 H   0  0  0  0  0  0  0  0  0  0  0  0
    5.8348   -0.8276    0.0000 H   0  0  0  0  0  0  0  0  0  0  0  0
  1  2  1  0
  2  3  2  0
  3  4  1  0
  4  5  2  0
  5  6  1  0
  6  7  2  0
  7  8  1  0
  8  9  1  0
  9 10  1  0
 10 11  1  0
 11 12  1  0
 12 13  1  0
 13 14  1  0
 14 15  1  0
  7  2  1  0
 15 13  1  0
 11  5  1  0
  8  6  1  0
  1 16  1  0
  3 17  1  0
  4 18  1  0
  8 19  1  6
  9 20  1  0
  9 21  1  0
 10 22  1  0
 10 23  1  0
 11 24  1  6
 12 25  1  0
 12 26  1  0
 13 27  1  0
 14 28  1  0
 14 29  1  0
 15 30  1  0
 15 31  1  0
M  END
$$$$
