
     RDKit          2D

105108  0  0  0  0  0  0  0  0999 V2000
    4.6309    7.5286    0.0000 C   0  0  0  0  0  0  0  0  0  0  0  0
    5.0191    6.0798    0.0000 C   0  0  0  0  0  0  0  0  0  0  0  0
    3.9584    5.0191    0.0000 C   0  0  0  0  0  0  0  0  0  0  0  0
    4.3467    3.5702    0.0000 C   0  0  0  0  0  0  0  0  0  0  0  0
    5.7956    3.1820    0.0000 C   0  0  0  0  0  0  0  0  0  0  0  0
    7.2444    2.7938    0.0000 C   0  0  0  0  0  0  0  0  0  0  0  0
    5.4073    1.7331    0.0000 C   0  0  0  0  0  0  0  0  0  0  0  0
    5.0191    0.2842    0.0000 C   0  0  0  0  0  0  0  0  0  0  0  0
    4.6309   -1.1647    0.0000 C   0  0  0  0  0  0  0  0  0  0  0  0
    4.2426   -2.6136    0.0000 C   0  0  0  0  0  0  0  0  0  0  0  0
    3.8544   -4.0625    0.0000 O   0  0  0  0  0  0  0  0  0  0  0  0
    4.9151   -5.1231    0.0000 C   0  0  0  0  0  0  0  0  0  0  0  0
    5.9757   -4.0625    0.0000 C   0  0  0  0  0  0  0  0  0  0  0  0
    3.8544   -6.1838    0.0000 C   0  0  0  0  0  0  0  0  0  0  0  0
    2.7938   -7.2444    0.0000 O   0  0  0  0  0  0  0  0  0  0  0  0
    3.5702    0.6724    0.0000 C   0  0  0  0  0  0  0  0  0  0  0  0
    2.1213    1.0607    0.0000 As  0  0  0  0  0  3  0  0  0  0  0  0
    1.7331    2.5095    0.0000 N   0  0  0  0  0  0  0  0  0  0  0  0
    1.0607    0.0000    0.0000 C   0  0  0  0  0  0  0  0  0  0  0  0
   -0.0000   -1.0607    0.0000 C   0  0  0  0  0  0  0  0  0  0  0  0
    0.1307   -2.5550    0.0000 C   0  0  0  0  0  0  0  0  0  0  0  0
   -0.7296   -3.7837    0.0000 O   0  0  0  0  0  0  0  0  0  0  0  0
   -2.1785   -4.1719    0.0000 C   0  0  0  0  0  0  0  0  0  0  0  0
   -1.3911   -5.4486    0.0000 C   0  0  0  0  0  0  0  0  0  0  0  0
   -0.6036   -6.7253    0.0000 C   0  0  0  0  0  0  0  0  0  0  0  0
    0.1839   -8.0019    0.0000 C   0  0  0  0  0  0  0  0  0  0  0  0
   -3.5380   -3.5380    0.0000 C   0  0  0  0  0  0  0  0  0  0  0  0
   -4.5986   -4.5986    0.0000 O   0  0  0  0  0  0  0  0  0  0  0  0
   -4.1719   -2.1785    0.0000 N   0  0  0  0  0  0  0  0  0  0  0  0
   -3.7837   -0.7296    0.0000 C   0  0  0  0  0  0  0  0  0  0  0  0
   -5.2830   -0.7733    0.0000 C   0  0  0  0  0  0  0  0  0  0  0  0
   -2.5550    0.1307    0.0000 C   0  0  0  0  0  0  0  0  0  0  0  0
   -3.7316    1.0611    0.0000 O   0  0  0  0  0  0  0  0  0  0  0  0
   -1.0607    0.0000    0.0000 C   0  0  0  0  0  0  0  0  0  0  0  0
    0.0000    1.0607    0.0000 C   0  0  0  0  0  0  0  0  0  0  0  0
   -1.0607    2.1213    0.0000 C   0  0  0  0  0  0  0  0  0  0  0  0
   -2.1213    3.1820    0.0000 C   0  0  0  0  0  0  0  0  0  0  0  0
   -1.2610    4.4107    0.0000 C   0  0  0  0  0  0  0  0  0  0  0  0
   -1.8949    5.7702    0.0000 C   0  0  0  0  0  0  0  0  0  0  0  0
   -0.6662    6.6305    0.0000 C   0  0  0  0  0  0  0  0  0  0  0  0
    0.5626    7.4909    0.0000 C   0  0  0  0  0  0  0  0  0  0  0  0
    1.7913    8.3513    0.0000 O   0  0  0  0  0  0  0  0  0  0  0  0
   -2.7552    4.5414    0.0000 C   0  0  0  0  0  0  0  0  0  0  0  0
   -4.2495    4.6722    0.0000 C   0  0  0  0  0  0  0  0  0  0  0  0
    5.6915    8.5893    0.0000 H   0  0  0  0  0  0  0  0  0  0  0  0
    3.1820    7.9169    0.0000 H   0  0  0  0  0  0  0  0  0  0  0  0
    6.4680    5.6915    0.0000 H   0  0  0  0  0  0  0  0  0  0  0  0
    2.5095    5.4073    0.0000 H   0  0  0  0  0  0  0  0  0  0  0  0
    3.0609    2.7977    0.0000 H   0  0  0  0  0  0  0  0  0  0  0  0
    6.1838    4.6309    0.0000 H   0  0  0  0  0  0  0  0  0  0  0  0
    8.6933    2.4055    0.0000 H   0  0  0  0  0  0  0  0  0  0  0  0
    7.6327    4.2426    0.0000 H   0  0  0  0  0  0  0  0  0  0  0  0
    7.1212    1.9166    0.0000 H   0  0  0  0  0  0  0  0  0  0  0  0
    3.9584    2.1213    0.0000 H   0  0  0  0  0  0  0  0  0  0  0  0
    6.2286    1.4013    0.0000 H   0  0  0  0  0  0  0  0  0  0  0  0
    6.4680   -0.1040    0.0000 H   0  0  0  0  0  0  0  0  0  0  0  0
    6.0798   -1.5529    0.0000 H   0  0  0  0  0  0  0  0  0  0  0  0
    3.1455   -0.9560    0.0000 H   0  0  0  0  0  0  0  0  0  0  0  0
    5.0320   -2.7245    0.0000 H   0  0  0  0  0  0  0  0  0  0  0  0
    2.7938   -2.2253    0.0000 H   0  0  0  0  0  0  0  0  0  0  0  0
    5.9757   -6.1838    0.0000 H   0  0  0  0  0  0  0  0  0  0  0  0
    7.0364   -3.0018    0.0000 H   0  0  0  0  0  0  0  0  0  0  0  0
    7.0364   -5.1231    0.0000 H   0  0  0  0  0  0  0  0  0  0  0  0
    5.6516   -3.3342    0.0000 H   0  0  0  0  0  0  0  0  0  0  0  0
    4.9151   -7.2444    0.0000 H   0  0  0  0  0  0  0  0  0  0  0  0
    2.7938   -5.1231    0.0000 H   0  0  0  0  0  0  0  0  0  0  0  0
    3.1820   -8.6933    0.0000 H   0  0  0  0  0  0  0  0  0  0  0  0
    3.0083   -0.7183    0.0000 H   0  0  0  0  0  0  0  0  0  0  0  0
    3.5963    2.1722    0.0000 H   0  0  0  0  0  0  0  0  0  0  0  0
    2.7938    3.5702    0.0000 H   0  0  0  0  0  0  0  0  0  0  0  0
    0.3423    3.0715    0.0000 H   0  0  0  0  0  0  0  0  0  0  0  0
    2.2427   -0.9235    0.0000 H   0  0  0  0  0  0  0  0  0  0  0  0
    1.4095   -1.5737    0.0000 H   0  0  0  0  0  0  0  0  0  0  0  0
    1.5819   -2.1752    0.0000 H   0  0  0  0  0  0  0  0  0  0  0  0
    1.0611   -3.7316    0.0000 H   0  0  0  0  0  0  0  0  0  0  0  0
   -3.1757   -5.2924    0.0000 H   0  0  0  0  0  0  0  0  0  0  0  0
   -2.6677   -6.2360    0.0000 H   0  0  0  0  0  0  0  0  0  0  0  0
   -0.1144   -4.6611    0.0000 H   0  0  0  0  0  0  0  0  0  0  0  0
   -1.8803   -7.5127    0.0000 H   0  0  0  0  0  0  0  0  0  0  0  0
    0.6731   -5.9378    0.0000 H   0  0  0  0  0  0  0  0  0  0  0  0
    0.9713   -9.2786    0.0000 H   0  0  0  0  0  0  0  0  0  0  0  0
    1.4605   -7.2145    0.0000 H   0  0  0  0  0  0  0  0  0  0  0  0
   -1.0928   -8.7894    0.0000 H   0  0  0  0  0  0  0  0  0  0  0  0
   -5.6391   -2.4904    0.0000 H   0  0  0  0  0  0  0  0  0  0  0  0
   -4.5860    0.5378    0.0000 H   0  0  0  0  0  0  0  0  0  0  0  0
   -6.7824   -0.8169    0.0000 H   0  0  0  0  0  0  0  0  0  0  0  0
   -5.3267    0.7261    0.0000 H   0  0  0  0  0  0  0  0  0  0  0  0
   -5.4225   -2.2668    0.0000 H   0  0  0  0  0  0  0  0  0  0  0  0
   -2.1752    1.5819    0.0000 H   0  0  0  0  0  0  0  0  0  0  0  0
   -3.6967    2.5607    0.0000 H   0  0  0  0  0  0  0  0  0  0  0  0
   -1.8107   -1.2990    0.0000 H   0  0  0  0  0  0  0  0  0  0  0  0
    0.7725    2.3465    0.0000 H   0  0  0  0  0  0  0  0  0  0  0  0
   -0.1372    3.3034    0.0000 H   0  0  0  0  0  0  0  0  0  0  0  0
   -2.2427    1.1979    0.0000 H   0  0  0  0  0  0  0  0  0  0  0  0
   -3.4458    2.4778    0.0000 H   0  0  0  0  0  0  0  0  0  0  0  0
    0.2333    4.2800    0.0000 H   0  0  0  0  0  0  0  0  0  0  0  0
   -2.9555    6.8308    0.0000 H   0  0  0  0  0  0  0  0  0  0  0  0
   -1.5265    7.8593    0.0000 H   0  0  0  0  0  0  0  0  0  0  0  0
    0.1942    5.4018    0.0000 H   0  0  0  0  0  0  0  0  0  0  0  0
    1.4229    6.2622    0.0000 H   0  0  0  0  0  0  0  0  0  0  0  0
   -0.2978    8.7196    0.0000 H   0  0  0  0  0  0  0  0  0  0  0  0
    1.6606    9.8456    0.0000 H   0  0  0  0  0  0  0  0  0  0  0  0
   -5.7438    4.8029    0.0000 H   0  0  0  0  0  0  0  0  0  0  0  0
   -4.1188    6.1665    0.0000 H   0  0  0  0  0  0  0  0  0  0  0  0
   -4.3803    3.1779    0.0000 H   0  0  0  0  0  0  0  0  0  0  0  0
  1  2  2  3
  2  3  1  0
  3  4  2  3
  4  5  1  0
  5  6  1  0
  5  7  1  0
  7  8  1  0
  8  9  1  0
  9 10  1  0
 10 11  1  0
 11 12  1  0
 12 13  1  0
 12 14  1  0
 14 15  1  0
  8 16  1  0
 16 17  1  0
 17 18  1  0
 17 19  1  0
 19 20  1  0
 20 21  1  0
 21 22  1  0
 22 23  1  0
 23 24  1  0
 24 25  1  0
 25 26  1  0
 23 27  1  0
 27 28  2  0
 27 29  1  0
 29 30  1  0
 30 31  1  0
 30 32  1  0
 32 33  1  0
 32 34  1  0
 34 35  1  0
 35 36  1  0
 36 37  1  0
 37 38  1  0
 38 39  1  0
 39 40  1  0
 40 41  1  0
 41 42  1  0
 39 43  1  0
 43 44  1  6
 35 19  1  0
 43 37  1  0
 34 20  1  0
 43 38  1  0
  1 45  1  0
  1 46  1  0
  2 47  1  0
  3 48  1  0
  4 49  1  0
  5 50  1  1
  6 51  1  0
  6 52  1  0
  6 53  1  0
  7 54  1  0
  7 55  1  0
  8 56  1  6
  9 57  1  0
  9 58  1  0
 10 59  1  0
 10 60  1  0
 12 61  1  1
 13 62  1  0
 13 63  1  0
 13 64  1  0
 14 65  1  0
 14 66  1  0
 15 67  1  0
 16 68  1  0
 16 69  1  0
 18 70  1  0
 18 71  1  0
 19 72  1  1
 20 73  1  1
 21 74  1  0
 21 75  1  0
 23 76  1  1
 24 77  1  0
 24 78  1  0
 25 79  1  0
 25 80  1  0
 26 81  1  0
 26 82  1  0
 26 83  1  0
 29 84  1  0
 30 85  1  1
 31 86  1  0
 31 87  1  0
 31 88  1  0
 32 89  1  1
 33 90  1  0
 34 91  1  1
 35 92  1  6
 36 93  1  0
 36 94  1  0
 37 95  1  1
 38 96  1  1
 39 97  1  1
 40 98  1  0
 40 99  1  0
 41100  1  0
 41101  1  0
 42102  1  0
 44103  1  0
 44104  1  0
 44105  1  0
M  END
$$$$
