
     RDKit          2D

 24 26  0  0  0  0  0  0  0  0999 V2000
    4.2097    6.0058    0.0000 N   0  0  0  0  0  0  0  0  0  0  0  0
    3.2455    4.8567    0.0000 C   0  0  0  0  0  0  0  0  0  0  0  0
    2.2814    3.7077    0.0000 N   0  0  0  0  0  0  0  0  0  0  0  0
    2.7944    2.2981    0.0000 C   0  0  0  0  0  0  0  0  0  0  0  0
    1.8302    1.1491    0.0000 C   0  0  0  0  0  0  0  0  0  0  0  0
    0.8660    0.0000    0.0000 C   0  0  0  0  0  0  0  0  0  0  0  0
   -0.4330    0.7500    0.0000 N   0  0  0  0  0  0  0  0  0  0  0  0
   -1.7321    0.0000    0.0000 C   0  0  0  0  0  0  0  0  0  0  0  0
   -2.4821   -1.2990    0.0000 C   0  0  0  0  0  0  0  0  0  0  0  0
   -1.1830   -2.0490    0.0000 C   0  0  0  0  0  0  0  0  0  0  0  0
   -0.4330   -0.7500    0.0000 C   0  0  0  0  0  0  0  0  0  0  0  0
    5.6869    5.7453    0.0000 H   0  0  0  0  0  0  0  0  0  0  0  0
    3.6967    7.4153    0.0000 H   0  0  0  0  0  0  0  0  0  0  0  0
    2.0965    5.8209    0.0000 H   0  0  0  0  0  0  0  0  0  0  0  0
    4.3946    3.8926    0.0000 H   0  0  0  0  0  0  0  0  0  0  0  0
    4.2716    2.0377    0.0000 H   0  0  0  0  0  0  0  0  0  0  0  0
    0.6811    2.1132    0.0000 H   0  0  0  0  0  0  0  0  0  0  0  0
    2.9793    0.1849    0.0000 H   0  0  0  0  0  0  0  0  0  0  0  0
    1.8302   -1.1491    0.0000 H   0  0  0  0  0  0  0  0  0  0  0  0
   -2.7927    1.0607    0.0000 H   0  0  0  0  0  0  0  0  0  0  0  0
   -3.2321   -2.5981    0.0000 H   0  0  0  0  0  0  0  0  0  0  0  0
   -3.7811   -0.5490    0.0000 H   0  0  0  0  0  0  0  0  0  0  0  0
    0.1160   -2.7990    0.0000 H   0  0  0  0  0  0  0  0  0  0  0  0
   -1.9330   -3.3481    0.0000 H   0  0  0  0  0  0  0  0  0  0  0  0
  1  2  1  0
  2  3  1  0
  3  4  2  3
  4  5  1  0
  5  6  1  0
  6  7  1  0
  7  8  1  0
  8  9  1  0
  9 10  1  0
 11 10  1  1
 11  6  1  0
 11  7  1  0
 11  8  1  0
  1 12  1  0
  1 13  1  0
  2 14  1  0
  2 15  1  0
  4 16  1  0
  5 17  1  0
  5 18  1  0
  6 19  1  1
  8 20  1  1
  9 21  1  0
  9 22  1  0
 10 23  1  0
 10 24  1  0
M  END
$$$$
