
     RDKit          2D

103114  0  0  0  0  0  0  0  0999 V2000
   -6.2254    0.8484    0.0000 C   0  0  0  0  0  0  0  0  0  0  0  0
   -5.3758   -0.3878    0.0000 C   0  0  0  0  0  0  0  0  0  0  0  0
   -6.0216   -1.7417    0.0000 C   0  0  0  0  0  0  0  0  0  0  0  0
   -7.2578   -2.5913    0.0000 C   0  0  0  0  0  0  0  0  0  0  0  0
   -5.7829   -2.8647    0.0000 C   0  0  0  0  0  0  0  0  0  0  0  0
   -4.5467   -2.0151    0.0000 C   0  0  0  0  0  0  0  0  0  0  0  0
   -4.2734   -0.5402    0.0000 C   0  0  0  0  0  0  0  0  0  0  0  0
   -5.1230    0.6960    0.0000 C   0  0  0  0  0  0  0  0  0  0  0  0
   -6.5978    0.9694    0.0000 C   0  0  0  0  0  0  0  0  0  0  0  0
   -7.7385    1.9435    0.0000 C   0  0  0  0  0  0  0  0  0  0  0  0
   -7.8340    0.1198    0.0000 C   0  0  0  0  0  0  0  0  0  0  0  0
   -8.1074   -1.3551    0.0000 C   0  0  0  0  0  0  0  0  0  0  0  0
   -9.0816   -2.4957    0.0000 C   0  0  0  0  0  0  0  0  0  0  0  0
  -10.0557   -3.6363    0.0000 C   0  0  0  0  0  0  0  0  0  0  0  0
  -11.0299   -4.7769    0.0000 C   0  0  0  0  0  0  0  0  0  0  0  0
   -2.8468   -1.0037    0.0000 C   0  0  0  0  0  0  0  0  0  0  0  0
   -1.7321    0.0000    0.0000 C   0  0  0  0  0  0  0  0  0  0  0  0
   -0.4330    0.7500    0.0000 C   0  0  0  0  0  0  0  0  0  0  0  0
    0.8660    0.0000    0.0000 O   0  0  0  0  0  0  0  0  0  0  0  0
   -0.4330   -0.7500    0.0000 C   0  0  0  0  0  0  0  0  0  0  0  0
   -0.7449   -2.2172    0.0000 C   0  0  0  0  0  0  0  0  0  0  0  0
   -1.3550   -3.5875    0.0000 C   0  0  0  0  0  0  0  0  0  0  0  0
   -0.4733   -4.8011    0.0000 O   0  0  0  0  0  0  0  0  0  0  0  0
   -2.8468   -3.7443    0.0000 C   0  0  0  0  0  0  0  0  0  0  0  0
   -2.2367   -2.3740    0.0000 C   0  0  0  0  0  0  0  0  0  0  0  0
   -3.1586    0.4635    0.0000 C   0  0  0  0  0  0  0  0  0  0  0  0
   -3.4705    1.9307    0.0000 O   0  0  0  0  0  0  0  0  0  0  0  0
   -2.3558    2.9344    0.0000 C   0  0  0  0  0  0  0  0  0  0  0  0
   -1.3521    1.8197    0.0000 O   0  0  0  0  0  0  0  0  0  0  0  0
    0.1151    2.1316    0.0000 C   0  0  0  0  0  0  0  0  0  0  0  0
    1.5824    2.4435    0.0000 C   0  0  0  0  0  0  0  0  0  0  0  0
    3.0496    2.7553    0.0000 C   0  0  0  0  0  0  0  0  0  0  0  0
    4.5168    3.0672    0.0000 C   0  0  0  0  0  0  0  0  0  0  0  0
   -1.2411    3.9381    0.0000 C   0  0  0  0  0  0  0  0  0  0  0  0
   -2.0359    5.2102    0.0000 C   0  0  0  0  0  0  0  0  0  0  0  0
   -1.3317    6.5346    0.0000 C   0  0  0  0  0  0  0  0  0  0  0  0
   -0.5369    5.2626    0.0000 C   0  0  0  0  0  0  0  0  0  0  0  0
    0.9622    5.3149    0.0000 C   0  0  0  0  0  0  0  0  0  0  0  0
    2.4613    5.3673    0.0000 C   0  0  0  0  0  0  0  0  0  0  0  0
    3.8521    5.9292    0.0000 C   0  0  0  0  0  0  0  0  0  0  0  0
    2.6701    6.8527    0.0000 C   0  0  0  0  0  0  0  0  0  0  0  0
    3.3743    8.1771    0.0000 C   0  0  0  0  0  0  0  0  0  0  0  0
    4.0785    9.5015    0.0000 C   0  0  0  0  0  0  0  0  0  0  0  0
    4.7827   10.8259    0.0000 C   0  0  0  0  0  0  0  0  0  0  0  0
    5.4029    8.7973    0.0000 C   0  0  0  0  0  0  0  0  0  0  0  0
   -5.5797    2.2022    0.0000 H   0  0  0  0  0  0  0  0  0  0  0  0
   -7.7048    1.0960    0.0000 H   0  0  0  0  0  0  0  0  0  0  0  0
   -3.9534    0.0882    0.0000 H   0  0  0  0  0  0  0  0  0  0  0  0
   -7.1622   -0.7675    0.0000 H   0  0  0  0  0  0  0  0  0  0  0  0
   -7.9153   -3.9395    0.0000 H   0  0  0  0  0  0  0  0  0  0  0  0
   -4.7695   -3.9706    0.0000 H   0  0  0  0  0  0  0  0  0  0  0  0
   -6.4287   -4.2185    0.0000 H   0  0  0  0  0  0  0  0  0  0  0  0
   -3.2887   -2.8320    0.0000 H   0  0  0  0  0  0  0  0  0  0  0  0
   -4.8753    2.1754    0.0000 H   0  0  0  0  0  0  0  0  0  0  0  0
   -3.8722    1.5240    0.0000 H   0  0  0  0  0  0  0  0  0  0  0  0
   -6.2989    2.4393    0.0000 H   0  0  0  0  0  0  0  0  0  0  0  0
   -8.8791    2.9177    0.0000 H   0  0  0  0  0  0  0  0  0  0  0  0
   -6.7643    3.0842    0.0000 H   0  0  0  0  0  0  0  0  0  0  0  0
   -8.8444    0.9302    0.0000 H   0  0  0  0  0  0  0  0  0  0  0  0
   -9.3326    0.1852    0.0000 H   0  0  0  0  0  0  0  0  0  0  0  0
   -8.8083    1.2603    0.0000 H   0  0  0  0  0  0  0  0  0  0  0  0
   -9.5299   -0.8792    0.0000 H   0  0  0  0  0  0  0  0  0  0  0  0
  -10.2222   -1.5216    0.0000 H   0  0  0  0  0  0  0  0  0  0  0  0
   -8.0682   -3.6017    0.0000 H   0  0  0  0  0  0  0  0  0  0  0  0
  -11.1963   -2.6622    0.0000 H   0  0  0  0  0  0  0  0  0  0  0  0
   -8.9151   -4.6105    0.0000 H   0  0  0  0  0  0  0  0  0  0  0  0
  -12.0041   -5.9176    0.0000 H   0  0  0  0  0  0  0  0  0  0  0  0
   -9.8893   -5.7511    0.0000 H   0  0  0  0  0  0  0  0  0  0  0  0
  -12.1705   -3.8028    0.0000 H   0  0  0  0  0  0  0  0  0  0  0  0
    0.1047    2.1503    0.0000 H   0  0  0  0  0  0  0  0  0  0  0  0
    0.6817   -2.6807    0.0000 H   0  0  0  0  0  0  0  0  0  0  0  0
   -1.0834   -6.1714    0.0000 H   0  0  0  0  0  0  0  0  0  0  0  0
   -2.9514   -5.2407    0.0000 H   0  0  0  0  0  0  0  0  0  0  0  0
   -4.3356   -3.5616    0.0000 H   0  0  0  0  0  0  0  0  0  0  0  0
   -3.3595    4.0492    0.0000 H   0  0  0  0  0  0  0  0  0  0  0  0
   -0.0156    3.6259    0.0000 H   0  0  0  0  0  0  0  0  0  0  0  0
    0.7728    0.7834    0.0000 H   0  0  0  0  0  0  0  0  0  0  0  0
    1.8942    0.9762    0.0000 H   0  0  0  0  0  0  0  0  0  0  0  0
    1.0940    3.8617    0.0000 H   0  0  0  0  0  0  0  0  0  0  0  0
    3.3614    1.2881    0.0000 H   0  0  0  0  0  0  0  0  0  0  0  0
    2.5612    4.1736    0.0000 H   0  0  0  0  0  0  0  0  0  0  0  0
    5.9840    3.3791    0.0000 H   0  0  0  0  0  0  0  0  0  0  0  0
    4.8287    1.6000    0.0000 H   0  0  0  0  0  0  0  0  0  0  0  0
    4.3861    4.5615    0.0000 H   0  0  0  0  0  0  0  0  0  0  0  0
    0.1293    3.3281    0.0000 H   0  0  0  0  0  0  0  0  0  0  0  0
   -3.5350    5.1579    0.0000 H   0  0  0  0  0  0  0  0  0  0  0  0
   -2.5138    7.4581    0.0000 H   0  0  0  0  0  0  0  0  0  0  0  0
   -0.2170    7.5383    0.0000 H   0  0  0  0  0  0  0  0  0  0  0  0
    0.7275    6.7964    0.0000 H   0  0  0  0  0  0  0  0  0  0  0  0
    0.8315    3.8206    0.0000 H   0  0  0  0  0  0  0  0  0  0  0  0
    2.5920    3.8730    0.0000 H   0  0  0  0  0  0  0  0  0  0  0  0
    4.7961    4.7635    0.0000 H   0  0  0  0  0  0  0  0  0  0  0  0
    5.1765    6.6333    0.0000 H   0  0  0  0  0  0  0  0  0  0  0  0
    1.3106    7.4866    0.0000 H   0  0  0  0  0  0  0  0  0  0  0  0
    2.0499    8.8813    0.0000 H   0  0  0  0  0  0  0  0  0  0  0  0
    4.6987    7.4729    0.0000 H   0  0  0  0  0  0  0  0  0  0  0  0
    2.7541   10.2057    0.0000 H   0  0  0  0  0  0  0  0  0  0  0  0
    5.4869   12.1503    0.0000 H   0  0  0  0  0  0  0  0  0  0  0  0
    3.4583   11.5301    0.0000 H   0  0  0  0  0  0  0  0  0  0  0  0
    6.1831   10.2884    0.0000 H   0  0  0  0  0  0  0  0  0  0  0  0
    6.7273    8.0931    0.0000 H   0  0  0  0  0  0  0  0  0  0  0  0
    6.2633   10.0260    0.0000 H   0  0  0  0  0  0  0  0  0  0  0  0
    5.0401    7.3418    0.0000 H   0  0  0  0  0  0  0  0  0  0  0  0
  1  2  2  3
  2  3  1  0
  3  4  1  0
  4  5  1  0
  5  6  1  0
  6  7  1  0
  7  8  1  6
  8  9  1  0
  9 10  1  0
  9 11  1  0
 11 12  1  0
 12 13  1  0
 13 14  1  0
 14 15  1  0
  7 16  1  0
 16 17  1  6
 17 18  1  0
 18 19  1  0
 20 19  1  1
 20 21  1  0
 21 22  1  0
 22 23  1  1
 22 24  1  0
 25 24  1  6
 17 26  1  0
 26 27  1  1
 27 28  1  0
 28 29  1  0
 29 30  1  0
 30 31  1  0
 31 32  1  0
 32 33  1  0
 28 34  1  0
 34 35  1  0
 35 36  1  0
 36 37  1  0
 37 38  1  6
 38 39  1  0
 39 40  1  0
 40 41  1  0
 41 42  1  0
 42 43  1  0
 43 44  1  0
 43 45  1  0
  6  3  1  0
 26  7  1  0
 37 34  1  0
 41 39  1  0
 12  4  1  0
 25 16  1  0
 37 35  1  0
 26 16  1  0
 20 17  1  0
 25 21  1  0
 20 18  1  0
 25 22  1  0
  1 46  1  0
  1 47  1  0
  2 48  1  0
  3 49  1  6
  4 50  1  1
  5 51  1  0
  5 52  1  0
  6 53  1  1
  8 54  1  0
  8 55  1  0
  9 56  1  1
 10 57  1  0
 10 58  1  0
 10 59  1  0
 11 60  1  0
 11 61  1  0
 12 62  1  1
 13 63  1  0
 13 64  1  0
 14 65  1  0
 14 66  1  0
 15 67  1  0
 15 68  1  0
 15 69  1  0
 18 70  1  6
 21 71  1  6
 23 72  1  0
 24 73  1  0
 24 74  1  0
 28 75  1  1
 30 76  1  0
 30 77  1  0
 31 78  1  0
 31 79  1  0
 32 80  1  0
 32 81  1  0
 33 82  1  0
 33 83  1  0
 33 84  1  0
 34 85  1  6
 35 86  1  1
 36 87  1  0
 36 88  1  0
 38 89  1  0
 38 90  1  0
 39 91  1  1
 40 92  1  0
 40 93  1  0
 41 94  1  1
 42 95  1  0
 42 96  1  0
 43 97  1  0
 44 98  1  0
 44 99  1  0
 44100  1  0
 45101  1  0
 45102  1  0
 45103  1  0
M  END
$$$$
