
     RDKit          2D

 32 33  0  0  0  0  0  0  0  0999 V2000
    1.1569   -9.8180    0.0000 O   0  0  0  0  0  0  0  0  0  0  0  0
    2.6058   -9.4298    0.0000 C   0  0  0  0  0  0  0  0  0  0  0  0
    3.6665  -10.4905    0.0000 O   0  0  0  0  0  0  0  0  0  0  0  0
    2.9940   -7.9809    0.0000 C   0  0  0  0  0  0  0  0  0  0  0  0
    3.3823   -6.5320    0.0000 C   0  0  0  0  0  0  0  0  0  0  0  0
    4.8766   -6.6628    0.0000 C   0  0  0  0  0  0  0  0  0  0  0  0
    4.2426   -5.3033    0.0000 C   0  0  0  0  0  0  0  0  0  0  0  0
    3.1820   -4.2426    0.0000 C   0  0  0  0  0  0  0  0  0  0  0  0
    2.1213   -3.1820    0.0000 C   0  0  0  0  0  0  0  0  0  0  0  0
    1.0607   -2.1213    0.0000 C   0  0  0  0  0  0  0  0  0  0  0  0
   -0.0000   -1.0607    0.0000 C   0  0  0  0  0  0  0  0  0  0  0  0
    1.0607    0.0000    0.0000 C   0  0  0  0  0  0  0  0  0  0  0  0
    0.0000    1.0607    0.0000 C   0  0  0  0  0  0  0  0  0  0  0  0
   -1.0607    0.0000    0.0000 O   0  0  0  0  0  0  0  0  0  0  0  0
    3.2783  -11.9394    0.0000 H   0  0  0  0  0  0  0  0  0  0  0  0
    4.2457   -8.4867    0.0000 H   0  0  0  0  0  0  0  0  0  0  0  0
    1.5452   -7.5927    0.0000 H   0  0  0  0  0  0  0  0  0  0  0  0
    2.0983   -6.1149    0.0000 H   0  0  0  0  0  0  0  0  0  0  0  0
    6.3255   -6.2745    0.0000 H   0  0  0  0  0  0  0  0  0  0  0  0
    5.1573   -7.9833    0.0000 H   0  0  0  0  0  0  0  0  0  0  0  0
    5.4714   -4.4429    0.0000 H   0  0  0  0  0  0  0  0  0  0  0  0
    2.1181   -5.0738    0.0000 H   0  0  0  0  0  0  0  0  0  0  0  0
    4.2426   -3.1820    0.0000 H   0  0  0  0  0  0  0  0  0  0  0  0
    3.1820   -2.1213    0.0000 H   0  0  0  0  0  0  0  0  0  0  0  0
    1.0607   -4.2426    0.0000 H   0  0  0  0  0  0  0  0  0  0  0  0
    1.7586   -1.5760    0.0000 H   0  0  0  0  0  0  0  0  0  0  0  0
    0.0000   -3.1820    0.0000 H   0  0  0  0  0  0  0  0  0  0  0  0
   -1.0607   -2.1213    0.0000 H   0  0  0  0  0  0  0  0  0  0  0  0
    2.1213    1.0607    0.0000 H   0  0  0  0  0  0  0  0  0  0  0  0
    1.7586   -0.5453    0.0000 H   0  0  0  0  0  0  0  0  0  0  0  0
   -1.0607    2.1213    0.0000 H   0  0  0  0  0  0  0  0  0  0  0  0
    1.0607    2.1213    0.0000 H   0  0  0  0  0  0  0  0  0  0  0  0
  1  2  2  0
  2  3  1  0
  2  4  1  0
  4  5  1  0
  5  6  1  0
  6  7  1  0
  7  8  1  0
  8  9  1  0
  9 10  1  0
 10 11  1  0
 11 12  1  0
 12 13  1  0
 13 14  1  0
  7  5  1  0
 14 11  1  0
  3 15  1  0
  4 16  1  0
  4 17  1  0
  5 18  1  6
  6 19  1  0
  6 20  1  0
  7 21  1  1
  8 22  1  0
  8 23  1  0
  9 24  1  0
  9 25  1  0
 10 26  1  0
 10 27  1  0
 11 28  1  6
 12 29  1  0
 12 30  1  0
 13 31  1  0
 13 32  1  0
M  END
$$$$
