
     RDKit          2D

 18 17  0  0  0  0  0  0  0  0999 V2000
   -2.5981    0.0000    0.0000 C   0  0  0  0  0  0  0  0  0  0  0  0
   -1.2990    0.7500    0.0000 N   0  0  0  0  0  0  0  0  0  0  0  0
   -1.2990    2.2500    0.0000 C   0  0  0  0  0  0  0  0  0  0  0  0
   -1.2990    3.7500    0.0000 O   0  0  0  0  0  0  0  0  0  0  0  0
   -0.0000    0.0000    0.0000 C   0  0  0  0  0  0  0  0  0  0  0  0
    1.2990    0.7500    0.0000 O   0  0  0  0  0  0  0  0  0  0  0  0
    0.0000   -1.5000    0.0000 C   0  0  0  0  0  0  0  0  0  0  0  0
   -0.0000   -3.0000    0.0000 O   0  0  0  0  0  0  0  0  0  0  0  0
    1.5000   -1.5000    0.0000 O   0  0  0  0  0  0  0  0  0  0  0  0
   -3.8971   -0.7500    0.0000 H   0  0  0  0  0  0  0  0  0  0  0  0
   -2.1234   -1.1184    0.0000 H   0  0  0  0  0  0  0  0  0  0  0  0
   -3.3481    1.2990    0.0000 H   0  0  0  0  0  0  0  0  0  0  0  0
   -2.7990    2.2500    0.0000 H   0  0  0  0  0  0  0  0  0  0  0  0
    0.2010    2.2500    0.0000 H   0  0  0  0  0  0  0  0  0  0  0  0
    0.0000    4.5000    0.0000 H   0  0  0  0  0  0  0  0  0  0  0  0
   -1.2059   -1.6481    0.0000 H   0  0  0  0  0  0  0  0  0  0  0  0
   -1.2990   -3.7500    0.0000 H   0  0  0  0  0  0  0  0  0  0  0  0
    2.2500   -2.7990    0.0000 H   0  0  0  0  0  0  0  0  0  0  0  0
  1  2  1  0
  2  3  1  0
  3  4  1  0
  2  5  1  0
  5  6  2  0
  5  7  1  0
  7  8  1  0
  7  9  1  0
  1 10  1  0
  1 11  1  0
  1 12  1  0
  3 13  1  0
  3 14  1  0
  4 15  1  0
  7 16  1  0
  8 17  1  0
  9 18  1  0
M  END
$$$$
