
     RDKit          2D

101109  0  0  0  0  0  0  0  0999 V2000
    3.3074    0.8886    0.0000 C   0  0  0  0  0  0  0  0  0  0  0  0
    1.8302    1.1491    0.0000 C   0  0  0  0  0  0  0  0  0  0  0  0
    1.3172    2.5586    0.0000 C   0  0  0  0  0  0  0  0  0  0  0  0
    0.8041    3.9681    0.0000 C   0  0  0  0  0  0  0  0  0  0  0  0
    2.7267    3.0716    0.0000 C   0  0  0  0  0  0  0  0  0  0  0  0
    4.1363    3.5847    0.0000 C   0  0  0  0  0  0  0  0  0  0  0  0
    5.5458    4.0977    0.0000 C   0  0  0  0  0  0  0  0  0  0  0  0
    6.9553    4.6107    0.0000 C   0  0  0  0  0  0  0  0  0  0  0  0
    8.3649    5.1238    0.0000 C   0  0  0  0  0  0  0  0  0  0  0  0
    9.7744    5.6368    0.0000 C   0  0  0  0  0  0  0  0  0  0  0  0
    7.8518    6.5333    0.0000 C   0  0  0  0  0  0  0  0  0  0  0  0
    7.3388    7.9428    0.0000 O   0  0  0  0  0  0  0  0  0  0  0  0
    8.3030    9.0919    0.0000 C   0  0  0  0  0  0  0  0  0  0  0  0
    9.2672   10.2410    0.0000 P   0  0  0  0  0  0  0  0  0  0  0  0
   10.7444    9.9805    0.0000 O   0  0  0  0  0  0  0  0  0  0  0  0
   11.7086   11.1296    0.0000 O   0  0  0  0  0  0  0  0  0  0  0  0
    0.8660    0.0000    0.0000 C   0  0  0  0  0  0  0  0  0  0  0  0
   -0.4330    0.7500    0.0000 C   0  0  0  0  0  0  0  0  0  0  0  0
   -1.7321    1.5000    0.0000 O   0  0  0  0  0  0  0  0  0  0  0  0
   -3.0311    0.7500    0.0000 C   0  0  0  0  0  0  0  0  0  0  0  0
   -4.4577    1.2135    0.0000 O   0  0  0  0  0  0  0  0  0  0  0  0
   -5.3394    0.0000    0.0000 C   0  0  0  0  0  0  0  0  0  0  0  0
   -4.4577   -1.2135    0.0000 C   0  0  0  0  0  0  0  0  0  0  0  0
   -3.0311   -0.7500    0.0000 C   0  0  0  0  0  0  0  0  0  0  0  0
   -3.9128   -1.9635    0.0000 C   0  0  0  0  0  0  0  0  0  0  0  0
   -2.6137   -2.7135    0.0000 C   0  0  0  0  0  0  0  0  0  0  0  0
   -5.3394   -1.5000    0.0000 C   0  0  0  0  0  0  0  0  0  0  0  0
   -5.6512   -2.9672    0.0000 C   0  0  0  0  0  0  0  0  0  0  0  0
   -7.1503   -2.9149    0.0000 C   0  0  0  0  0  0  0  0  0  0  0  0
   -7.9452   -4.1869    0.0000 C   0  0  0  0  0  0  0  0  0  0  0  0
   -6.4461   -4.2393    0.0000 C   0  0  0  0  0  0  0  0  0  0  0  0
   -5.7419   -5.5637    0.0000 C   0  0  0  0  0  0  0  0  0  0  0  0
   -1.7321   -1.5000    0.0000 C   0  0  0  0  0  0  0  0  0  0  0  0
   -0.7679   -2.6491    0.0000 P   0  0  0  0  0  0  0  0  0  0  0  0
    0.7285   -2.5444    0.0000 C   0  0  0  0  0  0  0  0  0  0  0  0
    1.2904   -3.9352    0.0000 C   0  0  0  0  0  0  0  0  0  0  0  0
    2.7323   -3.5218    0.0000 C   0  0  0  0  0  0  0  0  0  0  0  0
    4.1742   -3.1083    0.0000 C   0  0  0  0  0  0  0  0  0  0  0  0
    3.1457   -4.9636    0.0000 C   0  0  0  0  0  0  0  0  0  0  0  0
    1.5509   -5.4124    0.0000 C   0  0  0  0  0  0  0  0  0  0  0  0
    0.4018   -6.3766    0.0000 C   0  0  0  0  0  0  0  0  0  0  0  0
    0.1413   -4.8994    0.0000 C   0  0  0  0  0  0  0  0  0  0  0  0
   -1.1308   -4.1045    0.0000 N   0  0  0  0  0  0  0  0  0  0  0  0
   -0.4330   -0.7500    0.0000 C   0  0  0  0  0  0  0  0  0  0  0  0
    4.1072    1.6343    0.0000 H   0  0  0  0  0  0  0  0  0  0  0  0
    3.8204   -0.5209    0.0000 H   0  0  0  0  0  0  0  0  0  0  0  0
   -0.1444    2.2212    0.0000 H   0  0  0  0  0  0  0  0  0  0  0  0
    0.2911    5.3777    0.0000 H   0  0  0  0  0  0  0  0  0  0  0  0
    1.5933    4.3703    0.0000 H   0  0  0  0  0  0  0  0  0  0  0  0
   -0.6054    3.4551    0.0000 H   0  0  0  0  0  0  0  0  0  0  0  0
    3.3382    2.1651    0.0000 H   0  0  0  0  0  0  0  0  0  0  0  0
    2.5275    3.9347    0.0000 H   0  0  0  0  0  0  0  0  0  0  0  0
    4.8173    2.2482    0.0000 H   0  0  0  0  0  0  0  0  0  0  0  0
    3.6232    4.9942    0.0000 H   0  0  0  0  0  0  0  0  0  0  0  0
    5.0328    5.5072    0.0000 H   0  0  0  0  0  0  0  0  0  0  0  0
    6.0588    2.6882    0.0000 H   0  0  0  0  0  0  0  0  0  0  0  0
    7.4684    3.2012    0.0000 H   0  0  0  0  0  0  0  0  0  0  0  0
    6.4037    5.6933    0.0000 H   0  0  0  0  0  0  0  0  0  0  0  0
    8.8779    3.7142    0.0000 H   0  0  0  0  0  0  0  0  0  0  0  0
   11.1839    6.1498    0.0000 H   0  0  0  0  0  0  0  0  0  0  0  0
   10.2874    4.2272    0.0000 H   0  0  0  0  0  0  0  0  0  0  0  0
    9.5752    6.4998    0.0000 H   0  0  0  0  0  0  0  0  0  0  0  0
    8.6410    6.9354    0.0000 H   0  0  0  0  0  0  0  0  0  0  0  0
    6.6680    6.2600    0.0000 H   0  0  0  0  0  0  0  0  0  0  0  0
    7.1539   10.0561    0.0000 H   0  0  0  0  0  0  0  0  0  0  0  0
    9.4521    8.1277    0.0000 H   0  0  0  0  0  0  0  0  0  0  0  0
    8.7541   11.6505    0.0000 H   0  0  0  0  0  0  0  0  0  0  0  0
   13.1858   10.8691    0.0000 H   0  0  0  0  0  0  0  0  0  0  0  0
    1.8302   -1.1491    0.0000 H   0  0  0  0  0  0  0  0  0  0  0  0
    0.1530    2.1308    0.0000 H   0  0  0  0  0  0  0  0  0  0  0  0
   -3.1879    2.2418    0.0000 H   0  0  0  0  0  0  0  0  0  0  0  0
   -6.8394    0.0000    0.0000 H   0  0  0  0  0  0  0  0  0  0  0  0
   -5.5366   -2.2556    0.0000 H   0  0  0  0  0  0  0  0  0  0  0  0
   -4.1973   -2.6908    0.0000 H   0  0  0  0  0  0  0  0  0  0  0  0
   -4.3513   -3.3980    0.0000 H   0  0  0  0  0  0  0  0  0  0  0  0
   -1.5348   -3.7556    0.0000 H   0  0  0  0  0  0  0  0  0  0  0  0
   -3.3637   -4.0126    0.0000 H   0  0  0  0  0  0  0  0  0  0  0  0
   -1.5717   -1.6346    0.0000 H   0  0  0  0  0  0  0  0  0  0  0  0
   -6.8311   -1.3432    0.0000 H   0  0  0  0  0  0  0  0  0  0  0  0
   -4.3393   -3.6945    0.0000 H   0  0  0  0  0  0  0  0  0  0  0  0
   -7.8545   -1.5905    0.0000 H   0  0  0  0  0  0  0  0  0  0  0  0
   -9.3360   -3.6250    0.0000 H   0  0  0  0  0  0  0  0  0  0  0  0
   -8.2571   -5.6542    0.0000 H   0  0  0  0  0  0  0  0  0  0  0  0
   -5.0377   -6.8881    0.0000 H   0  0  0  0  0  0  0  0  0  0  0  0
   -7.0663   -6.2679    0.0000 H   0  0  0  0  0  0  0  0  0  0  0  0
   -4.4175   -4.8595    0.0000 H   0  0  0  0  0  0  0  0  0  0  0  0
   -2.3895   -2.8482    0.0000 H   0  0  0  0  0  0  0  0  0  0  0  0
    0.4680   -1.0672    0.0000 H   0  0  0  0  0  0  0  0  0  0  0  0
    2.1092   -1.9583    0.0000 H   0  0  0  0  0  0  0  0  0  0  0  0
    2.4977   -2.0402    0.0000 H   0  0  0  0  0  0  0  0  0  0  0  0
    5.6161   -2.6948    0.0000 H   0  0  0  0  0  0  0  0  0  0  0  0
    4.7603   -4.4890    0.0000 H   0  0  0  0  0  0  0  0  0  0  0  0
    3.7607   -1.6664    0.0000 H   0  0  0  0  0  0  0  0  0  0  0  0
    3.7319   -6.3444    0.0000 H   0  0  0  0  0  0  0  0  0  0  0  0
    4.6273   -4.7290    0.0000 H   0  0  0  0  0  0  0  0  0  0  0  0
    1.8467   -5.7137    0.0000 H   0  0  0  0  0  0  0  0  0  0  0  0
    2.8874   -6.0934    0.0000 H   0  0  0  0  0  0  0  0  0  0  0  0
    1.1518   -7.6756    0.0000 H   0  0  0  0  0  0  0  0  0  0  0  0
   -1.0077   -6.8896    0.0000 H   0  0  0  0  0  0  0  0  0  0  0  0
   -2.5215   -4.6664    0.0000 H   0  0  0  0  0  0  0  0  0  0  0  0
    0.6090   -1.8290    0.0000 H   0  0  0  0  0  0  0  0  0  0  0  0
  1  2  2  3
  2  3  1  0
  3  4  1  0
  3  5  1  0
  5  6  1  0
  6  7  1  0
  7  8  1  0
  8  9  1  0
  9 10  1  0
  9 11  1  0
 11 12  1  0
 12 13  1  0
 13 14  1  0
 14 15  1  0
 15 16  1  0
  2 17  1  0
 17 18  1  0
 18 19  1  0
 19 20  1  0
 20 21  1  0
 21 22  1  0
 22 23  1  0
 23 24  1  0
 24 25  1  0
 25 26  1  0
 25 27  1  0
 27 28  1  0
 28 29  1  0
 29 30  1  0
 30 31  1  0
 31 32  1  0
 24 33  1  0
 33 34  1  0
 34 35  1  0
 35 36  1  0
 36 37  1  0
 37 38  1  0
 37 39  1  0
 36 40  1  0
 40 41  1  0
 41 42  1  0
 42 43  1  0
 33 44  1  0
 44 17  1  0
 44 18  1  0
 24 20  1  0
 31 28  1  0
 43 34  1  0
 27 22  1  0
 31 29  1  0
 42 36  1  0
 42 40  1  0
  1 45  1  0
  1 46  1  0
  3 47  1  0
  4 48  1  0
  4 49  1  0
  4 50  1  0
  5 51  1  0
  5 52  1  0
  6 53  1  0
  6 54  1  0
  7 55  1  0
  7 56  1  0
  8 57  1  0
  8 58  1  0
  9 59  1  0
 10 60  1  0
 10 61  1  0
 10 62  1  0
 11 63  1  0
 11 64  1  0
 13 65  1  0
 13 66  1  0
 14 67  1  0
 16 68  1  0
 17 69  1  0
 18 70  1  0
 20 71  1  0
 22 72  1  0
 23 73  1  0
 23 74  1  0
 25 75  1  0
 26 76  1  0
 26 77  1  0
 26 78  1  0
 27 79  1  0
 28 80  1  0
 29 81  1  0
 30 82  1  0
 30 83  1  0
 32 84  1  0
 32 85  1  0
 32 86  1  0
 33 87  1  0
 35 88  1  0
 35 89  1  0
 37 90  1  0
 38 91  1  0
 38 92  1  0
 38 93  1  0
 39 94  1  0
 39 95  1  0
 39 96  1  0
 40 97  1  0
 41 98  1  0
 41 99  1  0
 43100  1  0
 44101  1  0
M  END
$$$$
