
     RDKit          2D

 54 61  0  0  0  0  0  0  0  0999 V2000
    1.1812   -8.0326    0.0000 C   0  0  0  0  0  0  0  0  0  0  0  0
    0.8694   -6.5653    0.0000 C   0  0  0  0  0  0  0  0  0  0  0  0
   -0.6297   -6.6176    0.0000 C   0  0  0  0  0  0  0  0  0  0  0  0
    0.0746   -5.2932    0.0000 C   0  0  0  0  0  0  0  0  0  0  0  0
    1.1894   -4.2896    0.0000 C   0  0  0  0  0  0  0  0  0  0  0  0
    1.8937   -2.9652    0.0000 O   0  0  0  0  0  0  0  0  0  0  0  0
    0.3946   -3.0175    0.0000 C   0  0  0  0  0  0  0  0  0  0  0  0
   -0.9962   -3.5793    0.0000 C   0  0  0  0  0  0  0  0  0  0  0  0
   -2.3870   -4.1411    0.0000 C   0  0  0  0  0  0  0  0  0  0  0  0
   -3.7778   -4.7029    0.0000 F   0  0  0  0  0  0  0  0  0  0  0  0
   -1.0215    0.2360    0.0000 C   0  0  0  0  0  0  0  0  0  0  0  0
    0.8042   -1.0039    0.0000 F   0  0  0  0  0  0  0  0  0  0  0  0
   -1.4162   -1.6025    0.0000 C   0  0  0  0  0  0  0  0  0  0  0  0
   -2.8978   -1.8371    0.0000 C   0  0  0  0  0  0  0  0  0  0  0  0
   -4.3467   -2.2253    0.0000 C   0  0  0  0  0  0  0  0  0  0  0  0
   -1.8371   -2.8978    0.0000 C   0  0  0  0  0  0  0  0  0  0  0  0
   -0.3882   -2.5095    0.0000 N   0  0  0  0  0  2  0  0  0  0  0  0
   -0.0000   -1.0607    0.0000 C   0  0  0  0  0  0  0  0  0  0  0  0
    1.2990   -1.8107    0.0000 O   0  0  0  0  0  0  0  0  0  0  0  0
    2.5981   -1.0607    0.0000 C   0  0  0  0  0  0  0  0  0  0  0  0
    2.5981    0.4393    0.0000 C   0  0  0  0  0  0  0  0  0  0  0  0
    3.8971   -0.3107    0.0000 C   0  0  0  0  0  0  0  0  0  0  0  0
    3.8971   -1.8107    0.0000 C   0  0  0  0  0  0  0  0  0  0  0  0
    5.3743   -2.0711    0.0000 O   0  0  0  0  0  0  0  0  0  0  0  0
    1.0607    0.0000    0.0000 N   0  0  0  0  0  2  0  0  0  0  0  0
    0.0000    1.0607    0.0000 C   0  0  0  0  0  0  0  0  0  0  0  0
   -1.0607    0.0000    0.0000 C   0  0  0  0  0  0  0  0  0  0  0  0
   -2.5095   -0.3882    0.0000 C   0  0  0  0  0  0  0  0  0  0  0  0
    1.4929   -9.4998    0.0000 H   0  0  0  0  0  0  0  0  0  0  0  0
    2.6484   -7.7208    0.0000 H   0  0  0  0  0  0  0  0  0  0  0  0
   -0.2371   -8.5209    0.0000 H   0  0  0  0  0  0  0  0  0  0  0  0
    2.3183   -6.1772    0.0000 H   0  0  0  0  0  0  0  0  0  0  0  0
   -2.1021   -6.3313    0.0000 H   0  0  0  0  0  0  0  0  0  0  0  0
   -1.0181   -8.0664    0.0000 H   0  0  0  0  0  0  0  0  0  0  0  0
   -1.2957   -4.6831    0.0000 H   0  0  0  0  0  0  0  0  0  0  0  0
    2.4751   -5.0622    0.0000 H   0  0  0  0  0  0  0  0  0  0  0  0
   -0.9702   -5.0791    0.0000 H   0  0  0  0  0  0  0  0  0  0  0  0
   -1.5580   -2.1885    0.0000 H   0  0  0  0  0  0  0  0  0  0  0  0
   -1.9989   -5.5900    0.0000 H   0  0  0  0  0  0  0  0  0  0  0  0
   -2.9488   -2.7503    0.0000 H   0  0  0  0  0  0  0  0  0  0  0  0
   -1.8549   -0.1680    0.0000 H   0  0  0  0  0  0  0  0  0  0  0  0
   -5.7956   -2.6136    0.0000 H   0  0  0  0  0  0  0  0  0  0  0  0
   -4.9086   -0.8346    0.0000 H   0  0  0  0  0  0  0  0  0  0  0  0
   -4.1379   -3.7108    0.0000 H   0  0  0  0  0  0  0  0  0  0  0  0
   -1.7326   -4.3941    0.0000 H   0  0  0  0  0  0  0  0  0  0  0  0
   -3.1616   -3.6019    0.0000 H   0  0  0  0  0  0  0  0  0  0  0  0
    1.2278    1.0495    0.0000 H   0  0  0  0  0  0  0  0  0  0  0  0
    3.1111    1.8489    0.0000 H   0  0  0  0  0  0  0  0  0  0  0  0
    5.1962    0.4393    0.0000 H   0  0  0  0  0  0  0  0  0  0  0  0
    3.3841   -3.2202    0.0000 H   0  0  0  0  0  0  0  0  0  0  0  0
    5.8874   -3.4807    0.0000 H   0  0  0  0  0  0  0  0  0  0  0  0
   -1.6467    1.3808    0.0000 H   0  0  0  0  0  0  0  0  0  0  0  0
   -3.9768   -0.0763    0.0000 H   0  0  0  0  0  0  0  0  0  0  0  0
   -2.8215    1.0790    0.0000 H   0  0  0  0  0  0  0  0  0  0  0  0
  1  2  1  0
  2  3  1  0
  3  4  1  0
  4  5  1  0
  5  6  1  0
  6  7  1  0
  7  8  1  0
  8  9  1  0
  9 10  1  0
  7 11  1  0
 11 12  1  0
 11 13  1  0
 13 14  1  0
 14 15  1  0
 14 16  1  0
 16 17  1  0
 17 18  1  0
 18 19  1  0
 19 20  1  0
 20 21  1  0
 21 22  1  0
 22 23  1  0
 23 24  1  0
 18 25  1  0
 25 26  1  0
 26 27  1  0
 27 28  1  0
  4  2  1  0
  7  5  1  0
 26 11  1  0
 26 13  1  0
 28 14  1  0
 27 18  1  0
 22 20  1  0
 23 20  1  0
  1 29  1  0
  1 30  1  0
  1 31  1  0
  2 32  1  0
  3 33  1  0
  3 34  1  0
  4 35  1  0
  5 36  1  0
  8 37  1  0
  8 38  1  0
  9 39  1  0
  9 40  1  0
 13 41  1  0
 15 42  1  0
 15 43  1  0
 15 44  1  0
 16 45  1  0
 16 46  1  0
 21 47  1  0
 21 48  1  0
 22 49  1  0
 23 50  1  0
 24 51  1  0
 27 52  1  0
 28 53  1  0
 28 54  1  0
M  RAD  2  17   2  25   2
M  END
$$$$
