
     RDKit          2D

104115  0  0  0  0  0  0  0  0999 V2000
  -12.6162  -11.3979    0.0000 C   0  0  0  0  0  0  0  0  0  0  0  0
  -13.8341  -10.5223    0.0000 C   0  0  0  0  0  0  0  0  0  0  0  0
  -12.7094   -9.5297    0.0000 C   0  0  0  0  0  0  0  0  0  0  0  0
  -12.7842   -8.0316    0.0000 C   0  0  0  0  0  0  0  0  0  0  0  0
  -11.3069   -8.2921    0.0000 O   0  0  0  0  0  0  0  0  0  0  0  0
  -10.3428   -7.1430    0.0000 P   0  0  0  0  0  0  0  0  0  0  0  0
   -8.8656   -7.4035    0.0000 C   0  0  0  0  0  0  0  0  0  0  0  0
   -8.6051   -5.9263    0.0000 C   0  0  0  0  0  0  0  0  0  0  0  0
   -7.1279   -6.1867    0.0000 C   0  0  0  0  0  0  0  0  0  0  0  0
   -5.6507   -6.4472    0.0000 C   0  0  0  0  0  0  0  0  0  0  0  0
   -4.1734   -6.7077    0.0000 C   0  0  0  0  0  0  0  0  0  0  0  0
   -3.6604   -5.2981    0.0000 C   0  0  0  0  0  0  0  0  0  0  0  0
   -2.6962   -4.1491    0.0000 C   0  0  0  0  0  0  0  0  0  0  0  0
   -1.7321   -3.0000    0.0000 C   0  0  0  0  0  0  0  0  0  0  0  0
   -3.0311   -2.2500    0.0000 C   0  0  0  0  0  0  0  0  0  0  0  0
   -3.0311   -0.7500    0.0000 C   0  0  0  0  0  0  0  0  0  0  0  0
   -3.0311    0.7500    0.0000 C   0  0  0  0  0  0  0  0  0  0  0  0
   -2.5181    2.1595    0.0000 C   0  0  0  0  0  0  0  0  0  0  0  0
   -2.5181    3.6595    0.0000 C   0  0  0  0  0  0  0  0  0  0  0  0
   -3.2681    4.9586    0.0000 C   0  0  0  0  0  0  0  0  0  0  0  0
   -4.5671    4.2086    0.0000 C   0  0  0  0  0  0  0  0  0  0  0  0
   -3.8171    2.9095    0.0000 C   0  0  0  0  0  0  0  0  0  0  0  0
   -1.7321    0.0000    0.0000 C   0  0  0  0  0  0  0  0  0  0  0  0
   -0.4330    0.7500    0.0000 C   0  0  0  0  0  0  0  0  0  0  0  0
    0.8660    0.0000    0.0000 C   0  0  0  0  0  0  0  0  0  0  0  0
   -0.4330   -0.7500    0.0000 C   0  0  0  0  0  0  0  0  0  0  0  0
   -0.4330   -2.2500    0.0000 N   0  0  0  0  0  0  0  0  0  0  0  0
   -2.6962   -6.4472    0.0000 C   0  0  0  0  0  0  0  0  0  0  0  0
   -2.1832   -7.8567    0.0000 C   0  0  0  0  0  0  0  0  0  0  0  0
   -1.2190   -9.0058    0.0000 C   0  0  0  0  0  0  0  0  0  0  0  0
   -0.7060   -7.5963    0.0000 C   0  0  0  0  0  0  0  0  0  0  0  0
   -7.3883   -7.6639    0.0000 C   0  0  0  0  0  0  0  0  0  0  0  0
   -7.6488   -9.1412    0.0000 C   0  0  0  0  0  0  0  0  0  0  0  0
   -7.9093  -10.6184    0.0000 C   0  0  0  0  0  0  0  0  0  0  0  0
   -8.1698  -12.0956    0.0000 C   0  0  0  0  0  0  0  0  0  0  0  0
   -6.6925  -12.3560    0.0000 C   0  0  0  0  0  0  0  0  0  0  0  0
   -6.9530  -13.8333    0.0000 C   0  0  0  0  0  0  0  0  0  0  0  0
   -8.4302  -13.5728    0.0000 N   0  0  0  0  0  0  0  0  0  0  0  0
  -14.0021   -7.1560    0.0000 C   0  0  0  0  0  0  0  0  0  0  0  0
  -15.4460   -7.5622    0.0000 C   0  0  0  0  0  0  0  0  0  0  0  0
  -15.5208   -6.0641    0.0000 N   0  0  0  0  0  0  0  0  0  0  0  0
  -15.5564   -9.2839    0.0000 C   0  0  0  0  0  0  0  0  0  0  0  0
  -14.0761   -9.0419    0.0000 C   0  0  0  0  0  0  0  0  0  0  0  0
  -15.3144  -10.7643    0.0000 C   0  0  0  0  0  0  0  0  0  0  0  0
  -11.3982  -12.2735    0.0000 H   0  0  0  0  0  0  0  0  0  0  0  0
  -13.4918  -12.6158    0.0000 H   0  0  0  0  0  0  0  0  0  0  0  0
  -12.0754  -10.8122    0.0000 H   0  0  0  0  0  0  0  0  0  0  0  0
  -12.2456  -10.1781    0.0000 H   0  0  0  0  0  0  0  0  0  0  0  0
  -11.2101   -9.4849    0.0000 H   0  0  0  0  0  0  0  0  0  0  0  0
  -12.0374   -6.7307    0.0000 H   0  0  0  0  0  0  0  0  0  0  0  0
  -11.0238   -5.8065    0.0000 H   0  0  0  0  0  0  0  0  0  0  0  0
   -9.3041   -8.8379    0.0000 H   0  0  0  0  0  0  0  0  0  0  0  0
   -8.3446   -4.4490    0.0000 H   0  0  0  0  0  0  0  0  0  0  0  0
  -10.0395   -5.4877    0.0000 H   0  0  0  0  0  0  0  0  0  0  0  0
   -6.8674   -4.7095    0.0000 H   0  0  0  0  0  0  0  0  0  0  0  0
   -5.5722   -4.9493    0.0000 H   0  0  0  0  0  0  0  0  0  0  0  0
   -5.7291   -7.9451    0.0000 H   0  0  0  0  0  0  0  0  0  0  0  0
   -4.3563   -8.1965    0.0000 H   0  0  0  0  0  0  0  0  0  0  0  0
   -4.8583   -4.3954    0.0000 H   0  0  0  0  0  0  0  0  0  0  0  0
   -3.9543   -3.3321    0.0000 H   0  0  0  0  0  0  0  0  0  0  0  0
   -1.4382   -4.9660    0.0000 H   0  0  0  0  0  0  0  0  0  0  0  0
   -0.7679   -4.1491    0.0000 H   0  0  0  0  0  0  0  0  0  0  0  0
   -4.5083   -1.9895    0.0000 H   0  0  0  0  0  0  0  0  0  0  0  0
   -3.7121   -3.5865    0.0000 H   0  0  0  0  0  0  0  0  0  0  0  0
   -1.5757   -0.3870    0.0000 H   0  0  0  0  0  0  0  0  0  0  0  0
   -4.5083    1.0105    0.0000 H   0  0  0  0  0  0  0  0  0  0  0  0
   -1.0201    2.0811    0.0000 H   0  0  0  0  0  0  0  0  0  0  0  0
   -1.0692    4.0478    0.0000 H   0  0  0  0  0  0  0  0  0  0  0  0
   -4.0181    6.2576    0.0000 H   0  0  0  0  0  0  0  0  0  0  0  0
   -1.9690    5.7086    0.0000 H   0  0  0  0  0  0  0  0  0  0  0  0
   -5.8661    3.4586    0.0000 H   0  0  0  0  0  0  0  0  0  0  0  0
   -5.3171    5.5076    0.0000 H   0  0  0  0  0  0  0  0  0  0  0  0
   -4.8778    1.8489    0.0000 H   0  0  0  0  0  0  0  0  0  0  0  0
   -0.2502    2.2388    0.0000 H   0  0  0  0  0  0  0  0  0  0  0  0
    1.8302    1.1491    0.0000 H   0  0  0  0  0  0  0  0  0  0  0  0
    1.8302   -1.1491    0.0000 H   0  0  0  0  0  0  0  0  0  0  0  0
    0.8660   -3.0000    0.0000 H   0  0  0  0  0  0  0  0  0  0  0  0
   -1.3972   -5.6972    0.0000 H   0  0  0  0  0  0  0  0  0  0  0  0
   -3.3811   -8.7595    0.0000 H   0  0  0  0  0  0  0  0  0  0  0  0
   -2.1832  -10.1549    0.0000 H   0  0  0  0  0  0  0  0  0  0  0  0
    0.0800   -9.7558    0.0000 H   0  0  0  0  0  0  0  0  0  0  0  0
    0.7712   -7.8567    0.0000 H   0  0  0  0  0  0  0  0  0  0  0  0
   -0.5231   -6.1075    0.0000 H   0  0  0  0  0  0  0  0  0  0  0  0
   -5.9539   -8.1025    0.0000 H   0  0  0  0  0  0  0  0  0  0  0  0
   -6.1716   -9.4016    0.0000 H   0  0  0  0  0  0  0  0  0  0  0  0
   -9.1468   -9.0627    0.0000 H   0  0  0  0  0  0  0  0  0  0  0  0
   -9.3865  -10.3579    0.0000 H   0  0  0  0  0  0  0  0  0  0  0  0
   -6.4113  -10.6968    0.0000 H   0  0  0  0  0  0  0  0  0  0  0  0
   -9.6470  -11.8351    0.0000 H   0  0  0  0  0  0  0  0  0  0  0  0
   -5.2153  -12.6165    0.0000 H   0  0  0  0  0  0  0  0  0  0  0  0
   -6.2539  -10.9216    0.0000 H   0  0  0  0  0  0  0  0  0  0  0  0
   -7.2135  -15.3105    0.0000 H   0  0  0  0  0  0  0  0  0  0  0  0
   -5.4758  -14.0937    0.0000 H   0  0  0  0  0  0  0  0  0  0  0  0
   -9.6590  -14.4332    0.0000 H   0  0  0  0  0  0  0  0  0  0  0  0
  -13.0068   -6.0338    0.0000 H   0  0  0  0  0  0  0  0  0  0  0  0
  -14.1996   -5.6690    0.0000 H   0  0  0  0  0  0  0  0  0  0  0  0
  -16.9232   -7.3018    0.0000 H   0  0  0  0  0  0  0  0  0  0  0  0
  -16.8556   -5.3798    0.0000 H   0  0  0  0  0  0  0  0  0  0  0  0
  -14.3693   -5.1028    0.0000 H   0  0  0  0  0  0  0  0  0  0  0  0
  -16.7743   -8.4083    0.0000 H   0  0  0  0  0  0  0  0  0  0  0  0
  -12.8828   -8.1331    0.0000 H   0  0  0  0  0  0  0  0  0  0  0  0
  -13.9527   -7.5470    0.0000 H   0  0  0  0  0  0  0  0  0  0  0  0
  -16.7947  -11.0063    0.0000 H   0  0  0  0  0  0  0  0  0  0  0  0
  -15.0724  -12.2446    0.0000 H   0  0  0  0  0  0  0  0  0  0  0  0
  1  2  1  0
  2  3  1  0
  3  4  1  0
  4  5  1  0
  5  6  1  0
  6  7  1  0
  7  8  1  0
  8  9  1  0
  9 10  1  0
 10 11  1  0
 11 12  1  0
 12 13  1  0
 13 14  1  0
 14 15  1  0
 15 16  1  0
 16 17  1  0
 17 18  1  0
 18 19  1  0
 19 20  1  0
 20 21  1  0
 21 22  1  0
 17 23  1  0
 23 24  1  0
 24 25  1  0
 25 26  1  0
 26 27  1  0
 12 28  1  0
 28 29  1  0
 29 30  1  0
 30 31  1  0
  9 32  1  0
 32 33  1  0
 33 34  1  0
 34 35  1  0
 35 36  1  0
 36 37  1  0
 37 38  1  0
  4 39  1  0
 39 40  1  0
 40 41  1  0
 40 42  1  0
 42 43  1  0
 42 44  1  0
 43  2  1  0
 44  2  1  0
 32  7  1  0
 38 35  1  0
 28 11  1  0
 31 29  1  0
 27 14  1  0
 23 16  1  0
 26 24  1  0
 22 18  1  0
 26 23  1  0
 22 19  1  0
  1 45  1  0
  1 46  1  0
  1 47  1  0
  3 48  1  0
  3 49  1  0
  4 50  1  0
  6 51  1  0
  7 52  1  0
  8 53  1  0
  8 54  1  0
  9 55  1  0
 10 56  1  0
 10 57  1  0
 11 58  1  0
 12 59  1  0
 13 60  1  0
 13 61  1  0
 14 62  1  0
 15 63  1  0
 15 64  1  0
 16 65  1  0
 17 66  1  0
 18 67  1  0
 19 68  1  0
 20 69  1  0
 20 70  1  0
 21 71  1  0
 21 72  1  0
 22 73  1  0
 24 74  1  0
 25 75  1  0
 25 76  1  0
 27 77  1  0
 28 78  1  0
 29 79  1  0
 30 80  1  0
 30 81  1  0
 31 82  1  0
 31 83  1  0
 32 84  1  0
 33 85  1  0
 33 86  1  0
 34 87  1  0
 34 88  1  0
 35 89  1  0
 36 90  1  0
 36 91  1  0
 37 92  1  0
 37 93  1  0
 38 94  1  0
 39 95  1  0
 39 96  1  0
 40 97  1  0
 41 98  1  0
 41 99  1  0
 42100  1  0
 43101  1  0
 43102  1  0
 44103  1  0
 44104  1  0
M  END
$$$$
