
     RDKit          2D

 44 49  0  0  0  0  0  0  0  0999 V2000
   -5.7258   -0.9944    0.0000 C   0  0  0  0  0  0  0  0  0  0  0  0
   -4.9420    0.2846    0.0000 C   0  0  0  0  0  0  0  0  0  0  0  0
   -6.2210    1.0683    0.0000 N   0  0  0  0  0  0  0  0  0  0  0  0
   -4.1583    1.5635    0.0000 C   0  0  0  0  0  0  0  0  0  0  0  0
   -2.9682    0.6504    0.0000 C   0  0  0  0  0  0  0  0  0  0  0  0
   -1.7321    1.5000    0.0000 C   0  0  0  0  0  0  0  0  0  0  0  0
   -2.4821    2.7990    0.0000 C   0  0  0  0  0  0  0  0  0  0  0  0
   -3.9309    3.1873    0.0000 C   0  0  0  0  0  0  0  0  0  0  0  0
   -4.6809    4.4863    0.0000 C   0  0  0  0  0  0  0  0  0  0  0  0
   -4.2927    5.9352    0.0000 C   0  0  0  0  0  0  0  0  0  0  0  0
   -2.9937    6.6852    0.0000 C   0  0  0  0  0  0  0  0  0  0  0  0
   -1.5448    6.2970    0.0000 C   0  0  0  0  0  0  0  0  0  0  0  0
   -0.7948    4.9979    0.0000 C   0  0  0  0  0  0  0  0  0  0  0  0
   -1.1830    3.5490    0.0000 C   0  0  0  0  0  0  0  0  0  0  0  0
   -1.9330    4.8481    0.0000 C   0  0  0  0  0  0  0  0  0  0  0  0
   -0.4330    2.2500    0.0000 N   0  0  0  0  0  0  0  0  0  0  0  0
   -0.4330    0.7500    0.0000 C   0  0  0  0  0  0  0  0  0  0  0  0
    0.8660    0.0000    0.0000 C   0  0  0  0  0  0  0  0  0  0  0  0
   -0.4330   -0.7500    0.0000 C   0  0  0  0  0  0  0  0  0  0  0  0
    0.0800   -2.1595    0.0000 O   0  0  0  0  0  0  0  0  0  0  0  0
   -6.5095   -2.2733    0.0000 H   0  0  0  0  0  0  0  0  0  0  0  0
   -4.4468   -1.7781    0.0000 H   0  0  0  0  0  0  0  0  0  0  0  0
   -7.0907   -0.3724    0.0000 H   0  0  0  0  0  0  0  0  0  0  0  0
   -4.3182   -0.2117    0.0000 H   0  0  0  0  0  0  0  0  0  0  0  0
   -6.3648    2.5614    0.0000 H   0  0  0  0  0  0  0  0  0  0  0  0
   -7.6166    0.5186    0.0000 H   0  0  0  0  0  0  0  0  0  0  0  0
   -5.5121    2.2093    0.0000 H   0  0  0  0  0  0  0  0  0  0  0  0
   -2.1404   -0.6005    0.0000 H   0  0  0  0  0  0  0  0  0  0  0  0
   -3.4424    0.0096    0.0000 H   0  0  0  0  0  0  0  0  0  0  0  0
   -3.0801    1.4234    0.0000 H   0  0  0  0  0  0  0  0  0  0  0  0
   -4.9823    2.1174    0.0000 H   0  0  0  0  0  0  0  0  0  0  0  0
   -5.9800    5.2363    0.0000 H   0  0  0  0  0  0  0  0  0  0  0  0
   -5.7416    3.4256    0.0000 H   0  0  0  0  0  0  0  0  0  0  0  0
   -5.4827    6.8483    0.0000 H   0  0  0  0  0  0  0  0  0  0  0  0
   -3.1895    8.1724    0.0000 H   0  0  0  0  0  0  0  0  0  0  0  0
   -0.6316    7.4870    0.0000 H   0  0  0  0  0  0  0  0  0  0  0  0
    0.5043    4.2479    0.0000 H   0  0  0  0  0  0  0  0  0  0  0  0
    0.2659    6.0586    0.0000 H   0  0  0  0  0  0  0  0  0  0  0  0
   -2.9937    3.7874    0.0000 H   0  0  0  0  0  0  0  0  0  0  0  0
   -3.2321    5.5981    0.0000 H   0  0  0  0  0  0  0  0  0  0  0  0
    1.8302    1.1491    0.0000 H   0  0  0  0  0  0  0  0  0  0  0  0
    1.8302   -1.1491    0.0000 H   0  0  0  0  0  0  0  0  0  0  0  0
   -1.8675   -1.1886    0.0000 H   0  0  0  0  0  0  0  0  0  0  0  0
   -0.8842   -3.3086    0.0000 H   0  0  0  0  0  0  0  0  0  0  0  0
  1  2  1  0
  2  3  1  0
  2  4  1  0
  4  5  1  0
  5  6  1  0
  6  7  1  0
  7  8  1  0
  8  9  1  0
  9 10  1  0
 10 11  2  0
 11 12  1  0
 12 13  1  0
 13 14  1  0
 14 15  1  0
 14 16  1  0
 16 17  1  0
 17 18  1  0
 18 19  1  0
 19 20  1  0
  8  4  1  0
 15 12  1  0
 19 17  1  0
 16  6  1  0
 17  6  1  0
 14  7  1  0
  1 21  1  0
  1 22  1  0
  1 23  1  0
  2 24  1  0
  3 25  1  0
  3 26  1  0
  4 27  1  0
  5 28  1  0
  5 29  1  0
  7 30  1  0
  8 31  1  0
  9 32  1  0
  9 33  1  0
 10 34  1  0
 11 35  1  0
 12 36  1  0
 13 37  1  0
 13 38  1  0
 15 39  1  0
 15 40  1  0
 18 41  1  0
 18 42  1  0
 19 43  1  0
 20 44  1  0
M  END
$$$$
