
     RDKit          2D

104114  0  0  0  0  0  0  0  0999 V2000
    4.9753   -6.5370    0.0000 C   0  0  0  0  0  0  0  0  0  0  0  0
    3.5845   -5.9751    0.0000 C   0  0  0  0  0  0  0  0  0  0  0  0
    3.3757   -4.4897    0.0000 C   0  0  0  0  0  0  0  0  0  0  0  0
    3.1670   -3.0043    0.0000 C   0  0  0  0  0  0  0  0  0  0  0  0
    1.7115   -3.3672    0.0000 C   0  0  0  0  0  0  0  0  0  0  0  0
    0.9167   -2.0951    0.0000 C   0  0  0  0  0  0  0  0  0  0  0  0
   -0.5606   -2.3556    0.0000 C   0  0  0  0  0  0  0  0  0  0  0  0
   -1.8596   -1.2135    0.0000 C   0  0  0  0  0  0  0  0  0  0  0  0
   -2.2587   -2.6595    0.0000 C   0  0  0  0  0  0  0  0  0  0  0  0
   -3.6379   -3.2490    0.0000 C   0  0  0  0  0  0  0  0  0  0  0  0
   -3.5931   -4.7483    0.0000 C   0  0  0  0  0  0  0  0  0  0  0  0
   -3.0381   -6.1419    0.0000 C   0  0  0  0  0  0  0  0  0  0  0  0
   -2.4831   -7.5355    0.0000 C   0  0  0  0  0  0  0  0  0  0  0  0
   -2.4383   -9.0348    0.0000 O   0  0  0  0  0  0  0  0  0  0  0  0
   -3.7592   -8.3240    0.0000 C   0  0  0  0  0  0  0  0  0  0  0  0
   -4.6885   -9.5014    0.0000 C   0  0  0  0  0  0  0  0  0  0  0  0
   -5.6179  -10.6788    0.0000 C   0  0  0  0  0  0  0  0  0  0  0  0
   -6.5473  -11.8562    0.0000 C   0  0  0  0  0  0  0  0  0  0  0  0
   -3.5111  -10.4308    0.0000 C   0  0  0  0  0  0  0  0  0  0  0  0
   -2.3337  -11.3601    0.0000 C   0  0  0  0  0  0  0  0  0  0  0  0
   -4.8691   -5.5369    0.0000 C   0  0  0  0  0  0  0  0  0  0  0  0
   -6.1900   -4.8261    0.0000 C   0  0  0  0  0  0  0  0  0  0  0  0
   -6.2349   -3.3267    0.0000 C   0  0  0  0  0  0  0  0  0  0  0  0
   -4.9588   -2.5382    0.0000 C   0  0  0  0  0  0  0  0  0  0  0  0
   -5.2267   -1.0623    0.0000 C   0  0  0  0  0  0  0  0  0  0  0  0
   -3.7835   -1.4713    0.0000 C   0  0  0  0  0  0  0  0  0  0  0  0
    0.8660    0.0000    0.0000 C   0  0  0  0  0  0  0  0  0  0  0  0
   -0.4330    0.7500    0.0000 C   0  0  0  0  0  0  0  0  0  0  0  0
   -0.4330   -0.7500    0.0000 N   0  0  0  0  0  0  0  0  0  0  0  0
   -1.8596    1.2135    0.0000 C   0  0  0  0  0  0  0  0  0  0  0  0
   -0.5606    1.9635    0.0000 C   0  0  0  0  0  0  0  0  0  0  0  0
   -1.3106    3.2626    0.0000 C   0  0  0  0  0  0  0  0  0  0  0  0
   -2.6096    2.5126    0.0000 C   0  0  0  0  0  0  0  0  0  0  0  0
   -3.9086    1.7626    0.0000 C   0  0  0  0  0  0  0  0  0  0  0  0
   -3.3596    3.8116    0.0000 C   0  0  0  0  0  0  0  0  0  0  0  0
    0.9167    1.7031    0.0000 C   0  0  0  0  0  0  0  0  0  0  0  0
    1.8808    0.5540    0.0000 C   0  0  0  0  0  0  0  0  0  0  0  0
    1.8808   -0.9460    0.0000 C   0  0  0  0  0  0  0  0  0  0  0  0
    3.2716   -1.5079    0.0000 C   0  0  0  0  0  0  0  0  0  0  0  0
    4.7707   -1.4556    0.0000 C   0  0  0  0  0  0  0  0  0  0  0  0
    3.0628   -0.0225    0.0000 C   0  0  0  0  0  0  0  0  0  0  0  0
    3.6248    1.3683    0.0000 C   0  0  0  0  0  0  0  0  0  0  0  0
   -2.7413    0.0000    0.0000 N   0  0  0  0  0  0  0  0  0  0  0  0
   -4.2398    0.0673    0.0000 C   0  0  0  0  0  0  0  0  0  0  0  0
    5.1840   -8.0224    0.0000 H   0  0  0  0  0  0  0  0  0  0  0  0
    6.1573   -5.6135    0.0000 H   0  0  0  0  0  0  0  0  0  0  0  0
    2.4025   -6.8986    0.0000 H   0  0  0  0  0  0  0  0  0  0  0  0
    4.8611   -4.2809    0.0000 H   0  0  0  0  0  0  0  0  0  0  0  0
    1.9269   -4.8779    0.0000 H   0  0  0  0  0  0  0  0  0  0  0  0
    4.6613   -3.1350    0.0000 H   0  0  0  0  0  0  0  0  0  0  0  0
    0.9843   -4.6791    0.0000 H   0  0  0  0  0  0  0  0  0  0  0  0
    0.1126   -3.6960    0.0000 H   0  0  0  0  0  0  0  0  0  0  0  0
   -1.1259   -3.0374    0.0000 H   0  0  0  0  0  0  0  0  0  0  0  0
   -1.4946   -2.8869    0.0000 H   0  0  0  0  0  0  0  0  0  0  0  0
   -1.9908   -4.1354    0.0000 H   0  0  0  0  0  0  0  0  0  0  0  0
   -3.0006   -1.8912    0.0000 H   0  0  0  0  0  0  0  0  0  0  0  0
   -2.0981   -4.6251    0.0000 H   0  0  0  0  0  0  0  0  0  0  0  0
   -4.4317   -6.6969    0.0000 H   0  0  0  0  0  0  0  0  0  0  0  0
   -1.6445   -5.5869    0.0000 H   0  0  0  0  0  0  0  0  0  0  0  0
   -1.0144   -7.2309    0.0000 H   0  0  0  0  0  0  0  0  0  0  0  0
   -4.8863   -7.3343    0.0000 H   0  0  0  0  0  0  0  0  0  0  0  0
   -5.8659   -8.5720    0.0000 H   0  0  0  0  0  0  0  0  0  0  0  0
   -6.7953   -9.7494    0.0000 H   0  0  0  0  0  0  0  0  0  0  0  0
   -4.5626  -11.7447    0.0000 H   0  0  0  0  0  0  0  0  0  0  0  0
   -7.4767  -13.0336    0.0000 H   0  0  0  0  0  0  0  0  0  0  0  0
   -7.7247  -10.9268    0.0000 H   0  0  0  0  0  0  0  0  0  0  0  0
   -5.3699  -12.7855    0.0000 H   0  0  0  0  0  0  0  0  0  0  0  0
   -4.2901  -11.7127    0.0000 H   0  0  0  0  0  0  0  0  0  0  0  0
   -2.3245   -9.5132    0.0000 H   0  0  0  0  0  0  0  0  0  0  0  0
   -1.1563  -12.2895    0.0000 H   0  0  0  0  0  0  0  0  0  0  0  0
   -3.2631  -12.5375    0.0000 H   0  0  0  0  0  0  0  0  0  0  0  0
   -1.4044  -10.1827    0.0000 H   0  0  0  0  0  0  0  0  0  0  0  0
   -5.7985   -6.7143    0.0000 H   0  0  0  0  0  0  0  0  0  0  0  0
   -4.0149   -6.7699    0.0000 H   0  0  0  0  0  0  0  0  0  0  0  0
   -7.6743   -4.6099    0.0000 H   0  0  0  0  0  0  0  0  0  0  0  0
   -6.6606   -6.2503    0.0000 H   0  0  0  0  0  0  0  0  0  0  0  0
   -6.7898   -1.9332    0.0000 H   0  0  0  0  0  0  0  0  0  0  0  0
   -7.7036   -3.6313    0.0000 H   0  0  0  0  0  0  0  0  0  0  0  0
   -5.0261   -4.0367    0.0000 H   0  0  0  0  0  0  0  0  0  0  0  0
   -6.6726   -0.6633    0.0000 H   0  0  0  0  0  0  0  0  0  0  0  0
   -4.1636   -2.9224    0.0000 H   0  0  0  0  0  0  0  0  0  0  0  0
   -2.9348   -2.7081    0.0000 H   0  0  0  0  0  0  0  0  0  0  0  0
    2.1904   -0.7044    0.0000 H   0  0  0  0  0  0  0  0  0  0  0  0
    0.4905    1.9320    0.0000 H   0  0  0  0  0  0  0  0  0  0  0  0
    0.4432    3.0782    0.0000 H   0  0  0  0  0  0  0  0  0  0  0  0
   -1.8966    4.6433    0.0000 H   0  0  0  0  0  0  0  0  0  0  0  0
   -0.1126    4.1653    0.0000 H   0  0  0  0  0  0  0  0  0  0  0  0
   -5.2894    1.1765    0.0000 H   0  0  0  0  0  0  0  0  0  0  0  0
   -4.8114    2.9605    0.0000 H   0  0  0  0  0  0  0  0  0  0  0  0
   -3.4953    0.3206    0.0000 H   0  0  0  0  0  0  0  0  0  0  0  0
   -4.1096    5.1106    0.0000 H   0  0  0  0  0  0  0  0  0  0  0  0
   -4.7404    3.2255    0.0000 H   0  0  0  0  0  0  0  0  0  0  0  0
   -2.1617    4.7144    0.0000 H   0  0  0  0  0  0  0  0  0  0  0  0
    1.6667    3.0021    0.0000 H   0  0  0  0  0  0  0  0  0  0  0  0
    2.5462    1.8983    0.0000 H   0  0  0  0  0  0  0  0  0  0  0  0
    3.1710   -0.2111    0.0000 H   0  0  0  0  0  0  0  0  0  0  0  0
    6.2698   -1.4032    0.0000 H   0  0  0  0  0  0  0  0  0  0  0  0
    5.0054   -2.9371    0.0000 H   0  0  0  0  0  0  0  0  0  0  0  0
    4.9015    0.0387    0.0000 H   0  0  0  0  0  0  0  0  0  0  0  0
    4.1867    2.7590    0.0000 H   0  0  0  0  0  0  0  0  0  0  0  0
    5.0737    0.9801    0.0000 H   0  0  0  0  0  0  0  0  0  0  0  0
    2.3128    2.0955    0.0000 H   0  0  0  0  0  0  0  0  0  0  0  0
   -5.6375    0.6118    0.0000 H   0  0  0  0  0  0  0  0  0  0  0  0
   -4.2024    1.5668    0.0000 H   0  0  0  0  0  0  0  0  0  0  0  0
  1  2  2  3
  2  3  1  0
  3  4  1  0
  4  5  1  0
  5  6  2  0
  6  7  1  0
  7  8  1  0
  8  9  1  0
  9 10  1  0
 10 11  1  0
 11 12  1  0
 12 13  1  0
 13 14  1  0
 14 15  1  0
 15 16  1  0
 16 17  1  0
 17 18  1  0
 16 19  1  0
 19 20  1  0
 11 21  1  0
 21 22  1  0
 22 23  1  0
 23 24  1  0
 24 25  1  0
 25 26  1  0
 26 27  1  0
 27 28  1  0
 28 29  1  0
 28 30  1  0
 30 31  1  0
 31 32  1  0
 32 33  1  0
 33 34  1  0
 33 35  1  0
 31 36  1  0
 36 37  1  0
 37 38  1  0
 38 39  1  0
 39 40  1  0
 39 41  1  0
 41 42  1  0
 30 43  1  0
 43 44  1  0
 39  4  1  0
 38  6  1  0
 29  8  1  0
 33 30  1  0
 41 36  1  0
 43  8  1  0
 24 10  1  0
 44 25  1  0
 15 13  1  0
 29 27  1  0
 41 38  1  0
  1 45  1  0
  1 46  1  0
  2 47  1  0
  3 48  1  0
  3 49  1  0
  4 50  1  0
  5 51  1  0
  7 52  1  0
  7 53  1  0
  9 54  1  0
  9 55  1  0
 10 56  1  0
 11 57  1  0
 12 58  1  0
 12 59  1  0
 13 60  1  0
 15 61  1  0
 16 62  1  0
 17 63  1  0
 17 64  1  0
 18 65  1  0
 18 66  1  0
 18 67  1  0
 19 68  1  0
 19 69  1  0
 20 70  1  0
 20 71  1  0
 20 72  1  0
 21 73  1  0
 21 74  1  0
 22 75  1  0
 22 76  1  0
 23 77  1  0
 23 78  1  0
 24 79  1  0
 25 80  1  0
 26 81  1  0
 26 82  1  0
 27 83  1  0
 28 84  1  0
 31 85  1  0
 32 86  1  0
 32 87  1  0
 34 88  1  0
 34 89  1  0
 34 90  1  0
 35 91  1  0
 35 92  1  0
 35 93  1  0
 36 94  1  0
 37 95  1  0
 37 96  1  0
 40 97  1  0
 40 98  1  0
 40 99  1  0
 42100  1  0
 42101  1  0
 42102  1  0
 44103  1  0
 44104  1  0
M  END
$$$$
