
     RDKit          2D

 55 62  0  0  0  0  0  0  0  0999 V2000
    1.2533   -4.1279    0.0000 O   0  0  0  0  0  0  0  0  0  0  0  0
    1.2794   -2.6281    0.0000 C   0  0  0  0  0  0  0  0  0  0  0  0
   -0.2148   -2.7588    0.0000 C   0  0  0  0  0  0  0  0  0  0  0  0
   -0.8009   -1.3781    0.0000 C   0  0  0  0  0  0  0  0  0  0  0  0
    0.1632   -0.2290    0.0000 C   0  0  0  0  0  0  0  0  0  0  0  0
    1.3123   -1.1932    0.0000 C   0  0  0  0  0  0  0  0  0  0  0  0
    0.3481   -2.3423    0.0000 C   0  0  0  0  0  0  0  0  0  0  0  0
   -0.6161   -3.4913    0.0000 C   0  0  0  0  0  0  0  0  0  0  0  0
   -1.5802   -4.6404    0.0000 C   0  0  0  0  0  0  0  0  0  0  0  0
   -2.5444   -5.7895    0.0000 C   0  0  0  0  0  0  0  0  0  0  0  0
   -3.5086   -6.9385    0.0000 C   0  0  0  0  0  0  0  0  0  0  0  0
   -4.4728   -8.0876    0.0000 C   0  0  0  0  0  0  0  0  0  0  0  0
   -4.9858   -9.4971    0.0000 N   0  0  0  0  0  0  0  0  0  0  0  0
   -3.5086   -9.2367    0.0000 C   0  0  0  0  0  0  0  0  0  0  0  0
   -2.9956  -10.6462    0.0000 O   0  0  0  0  0  0  0  0  0  0  0  0
   -3.6935   -4.8253    0.0000 C   0  0  0  0  0  0  0  0  0  0  0  0
   -5.1030   -4.3123    0.0000 C   0  0  0  0  0  0  0  0  0  0  0  0
   -4.8426   -5.7895    0.0000 C   0  0  0  0  0  0  0  0  0  0  0  0
   -6.2521   -6.3025    0.0000 C   0  0  0  0  0  0  0  0  0  0  0  0
   -7.0021   -5.0035    0.0000 C   0  0  0  0  0  0  0  0  0  0  0  0
   -7.7521   -6.3025    0.0000 C   0  0  0  0  0  0  0  0  0  0  0  0
   -9.0511   -7.0525    0.0000 C   0  0  0  0  0  0  0  0  0  0  0  0
   -9.8011   -5.7535    0.0000 C   0  0  0  0  0  0  0  0  0  0  0  0
   -9.8011   -4.2535    0.0000 N   0  0  0  0  0  0  0  0  0  0  0  0
   -8.5021   -5.0035    0.0000 C   0  0  0  0  0  0  0  0  0  0  0  0
    2.5390   -4.9004    0.0000 H   0  0  0  0  0  0  0  0  0  0  0  0
    2.7683   -2.8109    0.0000 H   0  0  0  0  0  0  0  0  0  0  0  0
   -0.9999   -2.8972    0.0000 H   0  0  0  0  0  0  0  0  0  0  0  0
    0.2487   -4.1854    0.0000 H   0  0  0  0  0  0  0  0  0  0  0  0
   -2.2952   -1.5088    0.0000 H   0  0  0  0  0  0  0  0  0  0  0  0
    1.1274    0.9200    0.0000 H   0  0  0  0  0  0  0  0  0  0  0  0
   -0.9858    0.7352    0.0000 H   0  0  0  0  0  0  0  0  0  0  0  0
    2.8066   -1.0625    0.0000 H   0  0  0  0  0  0  0  0  0  0  0  0
    0.7576   -3.3562    0.0000 H   0  0  0  0  0  0  0  0  0  0  0  0
   -1.3589   -3.0090    0.0000 H   0  0  0  0  0  0  0  0  0  0  0  0
    0.1111   -4.8033    0.0000 H   0  0  0  0  0  0  0  0  0  0  0  0
   -2.6032   -3.5433    0.0000 H   0  0  0  0  0  0  0  0  0  0  0  0
   -0.4312   -5.6046    0.0000 H   0  0  0  0  0  0  0  0  0  0  0  0
   -1.3954   -6.7537    0.0000 H   0  0  0  0  0  0  0  0  0  0  0  0
   -2.2506   -7.7555    0.0000 H   0  0  0  0  0  0  0  0  0  0  0  0
   -4.8568   -6.2811    0.0000 H   0  0  0  0  0  0  0  0  0  0  0  0
   -5.8536   -7.5015    0.0000 H   0  0  0  0  0  0  0  0  0  0  0  0
   -6.1349  -10.4613    0.0000 H   0  0  0  0  0  0  0  0  0  0  0  0
   -2.1278   -8.6506    0.0000 H   0  0  0  0  0  0  0  0  0  0  0  0
   -1.5184  -10.9067    0.0000 H   0  0  0  0  0  0  0  0  0  0  0  0
   -3.1074   -3.4445    0.0000 H   0  0  0  0  0  0  0  0  0  0  0  0
   -4.8426   -2.8350    0.0000 H   0  0  0  0  0  0  0  0  0  0  0  0
   -6.5918   -4.1294    0.0000 H   0  0  0  0  0  0  0  0  0  0  0  0
   -4.4292   -7.2314    0.0000 H   0  0  0  0  0  0  0  0  0  0  0  0
   -6.1736   -7.8004    0.0000 H   0  0  0  0  0  0  0  0  0  0  0  0
   -6.4160   -3.6227    0.0000 H   0  0  0  0  0  0  0  0  0  0  0  0
  -10.3502   -7.8025    0.0000 H   0  0  0  0  0  0  0  0  0  0  0  0
   -8.3011   -8.3515    0.0000 H   0  0  0  0  0  0  0  0  0  0  0  0
  -11.2500   -6.1417    0.0000 H   0  0  0  0  0  0  0  0  0  0  0  0
  -10.5511   -2.9544    0.0000 H   0  0  0  0  0  0  0  0  0  0  0  0
  1  2  1  0
  2  3  1  0
  3  4  1  0
  4  5  1  0
  5  6  1  0
  6  7  1  0
  7  8  1  0
  8  9  1  0
  9 10  1  0
 10 11  1  0
 11 12  1  0
 12 13  1  0
 13 14  1  0
 14 15  1  0
 10 16  1  0
 16 17  1  0
 17 18  1  0
 18 19  1  0
 19 20  1  0
 20 21  1  0
 21 22  1  0
 22 23  1  0
 23 24  1  0
 24 25  1  0
  6  2  1  0
 14 12  1  0
 18 16  1  0
 21 19  1  0
 25 23  1  0
  7  4  1  0
 25 20  1  0
 25 21  1  0
  1 26  1  0
  2 27  1  0
  3 28  1  0
  3 29  1  0
  4 30  1  0
  5 31  1  0
  5 32  1  0
  6 33  1  0
  7 34  1  0
  8 35  1  0
  8 36  1  0
  9 37  1  0
  9 38  1  0
 10 39  1  0
 11 40  1  0
 11 41  1  0
 12 42  1  0
 13 43  1  0
 14 44  1  0
 15 45  1  0
 16 46  1  0
 17 47  1  0
 17 48  1  0
 18 49  1  0
 19 50  1  0
 20 51  1  0
 22 52  1  0
 22 53  1  0
 23 54  1  0
 24 55  1  0
M  END
$$$$
