
     RDKit          2D

102112  0  0  0  0  0  0  0  0999 V2000
   -8.6494    0.0000    0.0000 C   0  0  0  0  0  0  0  0  0  0  0  0
   -6.4494    0.0000    0.0000 C   0  0  0  0  0  0  0  0  0  0  0  0
   -6.1379   -1.0608    0.0000 C   0  0  0  0  0  0  0  0  0  0  0  0
   -5.5932   -2.4215    0.0000 C   0  0  0  0  0  0  0  0  0  0  0  0
   -6.2550   -3.7676    0.0000 C   0  0  0  0  0  0  0  0  0  0  0  0
   -5.1793   -4.8130    0.0000 C   0  0  0  0  0  0  0  0  0  0  0  0
   -6.7308   -3.0597    0.0000 C   0  0  0  0  0  0  0  0  0  0  0  0
   -7.8504   -2.0614    0.0000 C   0  0  0  0  0  0  0  0  0  0  0  0
   -8.3207   -0.6370    0.0000 C   0  0  0  0  0  0  0  0  0  0  0  0
   -9.5966    0.1518    0.0000 C   0  0  0  0  0  0  0  0  0  0  0  0
  -10.9176   -0.5588    0.0000 O   0  0  0  0  0  0  0  0  0  0  0  0
   -8.0159    0.8317    0.0000 C   0  0  0  0  0  0  0  0  0  0  0  0
   -7.0175    1.9512    0.0000 O   0  0  0  0  0  0  0  0  0  0  0  0
   -5.5932    2.4215    0.0000 C   0  0  0  0  0  0  0  0  0  0  0  0
   -6.1379    1.0608    0.0000 C   0  0  0  0  0  0  0  0  0  0  0  0
   -4.1084    2.6350    0.0000 C   0  0  0  0  0  0  0  0  0  0  0  0
   -4.7958    3.9683    0.0000 C   0  0  0  0  0  0  0  0  0  0  0  0
   -5.4831    5.3015    0.0000 C   0  0  0  0  0  0  0  0  0  0  0  0
   -3.4625    4.6556    0.0000 O   0  0  0  0  0  0  0  0  0  0  0  0
   -3.3911    6.1539    0.0000 O   0  0  0  0  0  0  0  0  0  0  0  0
   -2.7440    2.0119    0.0000 C   0  0  0  0  0  0  0  0  0  0  0  0
   -1.9330    0.7500    0.0000 C   0  0  0  0  0  0  0  0  0  0  0  0
   -0.4330    0.7500    0.0000 C   0  0  0  0  0  0  0  0  0  0  0  0
    0.8660    0.0000    0.0000 C   0  0  0  0  0  0  0  0  0  0  0  0
   -0.4330   -0.7500    0.0000 C   0  0  0  0  0  0  0  0  0  0  0  0
   -1.9330   -0.7500    0.0000 C   0  0  0  0  0  0  0  0  0  0  0  0
   -2.7440   -2.0119    0.0000 C   0  0  0  0  0  0  0  0  0  0  0  0
   -1.7617   -3.1455    0.0000 C   0  0  0  0  0  0  0  0  0  0  0  0
   -0.4747   -2.3750    0.0000 C   0  0  0  0  0  0  0  0  0  0  0  0
    0.8361   -3.1043    0.0000 N   0  0  0  0  0  0  0  0  0  0  0  0
    0.8599   -4.6041    0.0000 C   0  0  0  0  0  0  0  0  0  0  0  0
    2.3410   -4.8411    0.0000 C   0  0  0  0  0  0  0  0  0  0  0  0
    3.8222   -5.0781    0.0000 C   0  0  0  0  0  0  0  0  0  0  0  0
    3.5852   -6.5593    0.0000 C   0  0  0  0  0  0  0  0  0  0  0  0
    5.0663   -6.7963    0.0000 C   0  0  0  0  0  0  0  0  0  0  0  0
    5.3033   -5.3151    0.0000 C   0  0  0  0  0  0  0  0  0  0  0  0
    5.5403   -3.8339    0.0000 C   0  0  0  0  0  0  0  0  0  0  0  0
    5.7773   -2.3528    0.0000 C   0  0  0  0  0  0  0  0  0  0  0  0
    6.0143   -0.8716    0.0000 C   0  0  0  0  0  0  0  0  0  0  0  0
    6.7436    0.4391    0.0000 C   0  0  0  0  0  0  0  0  0  0  0  0
    7.5142   -0.8478    0.0000 C   0  0  0  0  0  0  0  0  0  0  0  0
    8.9154   -0.3125    0.0000 C   0  0  0  0  0  0  0  0  0  0  0  0
   -0.4509   -3.8748    0.0000 C   0  0  0  0  0  0  0  0  0  0  0  0
   -4.1084   -2.6350    0.0000 C   0  0  0  0  0  0  0  0  0  0  0  0
   -3.8526   -4.1130    0.0000 C   0  0  0  0  0  0  0  0  0  0  0  0
   -9.3994    1.2990    0.0000 H   0  0  0  0  0  0  0  0  0  0  0  0
   -9.6914   -1.0790    0.0000 H   0  0  0  0  0  0  0  0  0  0  0  0
   -6.7611   -1.6336    0.0000 H   0  0  0  0  0  0  0  0  0  0  0  0
   -7.5071   -0.7779    0.0000 H   0  0  0  0  0  0  0  0  0  0  0  0
   -4.7722   -3.6769    0.0000 H   0  0  0  0  0  0  0  0  0  0  0  0
   -7.6124   -3.1294    0.0000 H   0  0  0  0  0  0  0  0  0  0  0  0
   -7.1822   -4.9467    0.0000 H   0  0  0  0  0  0  0  0  0  0  0  0
   -5.3928   -6.2978    0.0000 H   0  0  0  0  0  0  0  0  0  0  0  0
   -6.6118   -2.1820    0.0000 H   0  0  0  0  0  0  0  0  0  0  0  0
   -5.2372   -2.9218    0.0000 H   0  0  0  0  0  0  0  0  0  0  0  0
   -9.3160   -2.3803    0.0000 H   0  0  0  0  0  0  0  0  0  0  0  0
   -8.4056   -3.4548    0.0000 H   0  0  0  0  0  0  0  0  0  0  0  0
   -9.4983   -1.5662    0.0000 H   0  0  0  0  0  0  0  0  0  0  0  0
   -9.7345    1.6454    0.0000 H   0  0  0  0  0  0  0  0  0  0  0  0
   -8.7264    2.1527    0.0000 H   0  0  0  0  0  0  0  0  0  0  0  0
   -9.4790    1.1622    0.0000 H   0  0  0  0  0  0  0  0  0  0  0  0
   -6.3780    3.6998    0.0000 H   0  0  0  0  0  0  0  0  0  0  0  0
   -8.1633    1.0074    0.0000 H   0  0  0  0  0  0  0  0  0  0  0  0
   -7.2843    2.8318    0.0000 H   0  0  0  0  0  0  0  0  0  0  0  0
   -3.2134    3.8387    0.0000 H   0  0  0  0  0  0  0  0  0  0  0  0
   -6.2029    3.4486    0.0000 H   0  0  0  0  0  0  0  0  0  0  0  0
   -6.1704    6.6348    0.0000 H   0  0  0  0  0  0  0  0  0  0  0  0
   -4.3558    6.2910    0.0000 H   0  0  0  0  0  0  0  0  0  0  0  0
   -6.8164    4.6142    0.0000 H   0  0  0  0  0  0  0  0  0  0  0  0
   -2.0579    6.8412    0.0000 H   0  0  0  0  0  0  0  0  0  0  0  0
   -2.4204    3.4766    0.0000 H   0  0  0  0  0  0  0  0  0  0  0  0
   -1.2863    2.3655    0.0000 H   0  0  0  0  0  0  0  0  0  0  0  0
   -3.4292    0.6430    0.0000 H   0  0  0  0  0  0  0  0  0  0  0  0
   -0.0448    2.1989    0.0000 H   0  0  0  0  0  0  0  0  0  0  0  0
    1.8302    1.1491    0.0000 H   0  0  0  0  0  0  0  0  0  0  0  0
    1.8302   -1.1491    0.0000 H   0  0  0  0  0  0  0  0  0  0  0  0
   -1.2141   -2.0665    0.0000 H   0  0  0  0  0  0  0  0  0  0  0  0
   -2.5585   -4.4163    0.0000 H   0  0  0  0  0  0  0  0  0  0  0  0
   -0.1349   -0.9140    0.0000 H   0  0  0  0  0  0  0  0  0  0  0  0
    0.3693   -6.0216    0.0000 H   0  0  0  0  0  0  0  0  0  0  0  0
    1.9252   -6.2823    0.0000 H   0  0  0  0  0  0  0  0  0  0  0  0
    2.5780   -3.3599    0.0000 H   0  0  0  0  0  0  0  0  0  0  0  0
    3.8769   -3.5791    0.0000 H   0  0  0  0  0  0  0  0  0  0  0  0
    3.3482   -8.0404    0.0000 H   0  0  0  0  0  0  0  0  0  0  0  0
    2.0862   -6.5046    0.0000 H   0  0  0  0  0  0  0  0  0  0  0  0
    6.5475   -7.0333    0.0000 H   0  0  0  0  0  0  0  0  0  0  0  0
    4.8293   -8.2774    0.0000 H   0  0  0  0  0  0  0  0  0  0  0  0
    6.7845   -5.5521    0.0000 H   0  0  0  0  0  0  0  0  0  0  0  0
    7.0215   -4.0709    0.0000 H   0  0  0  0  0  0  0  0  0  0  0  0
    4.0991   -3.4182    0.0000 H   0  0  0  0  0  0  0  0  0  0  0  0
    7.2186   -2.7686    0.0000 H   0  0  0  0  0  0  0  0  0  0  0  0
    4.2962   -2.1158    0.0000 H   0  0  0  0  0  0  0  0  0  0  0  0
    4.5968   -0.3810    0.0000 H   0  0  0  0  0  0  0  0  0  0  0  0
    5.5794    1.3850    0.0000 H   0  0  0  0  0  0  0  0  0  0  0  0
    7.7491    1.5523    0.0000 H   0  0  0  0  0  0  0  0  0  0  0  0
    7.9755   -2.2751    0.0000 H   0  0  0  0  0  0  0  0  0  0  0  0
   10.3166    0.2228    0.0000 H   0  0  0  0  0  0  0  0  0  0  0  0
    9.4507   -1.7137    0.0000 H   0  0  0  0  0  0  0  0  0  0  0  0
    8.5548    1.1435    0.0000 H   0  0  0  0  0  0  0  0  0  0  0  0
   -2.7063   -3.1681    0.0000 H   0  0  0  0  0  0  0  0  0  0  0  0
   -3.2951   -5.5056    0.0000 H   0  0  0  0  0  0  0  0  0  0  0  0
   -2.3534   -4.0655    0.0000 H   0  0  0  0  0  0  0  0  0  0  0  0
  1  2  2  3
  2  3  1  0
  3  4  1  0
  4  5  1  0
  5  6  1  0
  6  7  1  0
  7  8  1  0
  8  9  1  0
  9 10  1  0
 10 11  2  0
  9 12  1  0
 12 13  1  0
 13 14  1  0
 14 15  1  0
 14 16  1  0
 16 17  1  0
 17 18  1  0
 17 19  1  0
 19 20  1  0
 16 21  1  0
 21 22  1  0
 22 23  1  0
 23 24  1  0
 24 25  1  0
 25 26  1  0
 26 27  1  0
 27 28  1  0
 28 29  1  0
 29 30  1  0
 30 31  1  0
 31 32  1  0
 32 33  1  0
 33 34  1  0
 34 35  1  0
 35 36  1  0
 36 37  1  0
 37 38  1  0
 38 39  1  0
 39 40  1  0
 40 41  1  0
 41 42  1  0
 31 43  1  0
 27 44  1  0
 44 45  1  0
 15  2  1  0
 26 22  1  0
 43 28  1  0
 44  4  1  0
 45  6  1  0
 25 23  1  0
 43 29  1  0
 27 25  1  0
 43 30  1  0
 36 33  1  0
 41 39  1  0
  1 46  1  0
  1 47  1  0
  3 48  1  0
  3 49  1  0
  4 50  1  0
  5 51  1  0
  5 52  1  0
  6 53  1  0
  7 54  1  0
  7 55  1  0
  8 56  1  0
  8 57  1  0
  9 58  1  0
 10 59  1  0
 12 60  1  0
 12 61  1  0
 14 62  1  0
 15 63  1  0
 15 64  1  0
 16 65  1  0
 17 66  1  0
 18 67  1  0
 18 68  1  0
 18 69  1  0
 20 70  1  0
 21 71  1  0
 21 72  1  0
 22 73  1  0
 23 74  1  0
 24 75  1  0
 24 76  1  0
 26 77  1  0
 28 78  1  0
 29 79  1  0
 31 80  1  0
 32 81  1  0
 32 82  1  0
 33 83  1  0
 34 84  1  0
 34 85  1  0
 35 86  1  0
 35 87  1  0
 36 88  1  0
 37 89  1  0
 37 90  1  0
 38 91  1  0
 38 92  1  0
 39 93  1  0
 40 94  1  0
 40 95  1  0
 41 96  1  0
 42 97  1  0
 42 98  1  0
 42 99  1  0
 44100  1  0
 45101  1  0
 45102  1  0
M  END
$$$$
