
     RDKit          3D

 45 58  0  0  0  0  0  0  0  0999 V2000
   11.6596  -24.6839   -8.5779 O   0  0  0  0  0  0  0  0  0  0  0  0
   10.7061  -24.5924   -9.7029 C   0  0  0  0  0  0  0  0  0  0  0  0
    9.3574  -24.3842  -10.2872 O   0  0  0  0  0  0  0  0  0  0  0  0
   11.9633  -28.3914  -11.0139 C   0  0  0  0  0  0  0  0  0  0  0  0
   11.5321  -27.9899  -12.3110 N   0  0  0  0  0  0  0  0  0  0  0  0
   12.2824  -27.1109  -13.4720 C   0  0  0  0  0  0  0  0  0  0  0  0
    9.9405  -25.1691   -8.9269 C   0  0  0  0  0  0  0  0  0  0  0  0
   13.0183  -22.7565  -10.0212 C   0  0  0  0  0  0  0  0  0  0  0  0
   14.2019  -23.1817   -9.7812 C   0  0  0  0  0  0  0  0  0  0  0  0
   11.8843  -21.5417   -9.5317 C   0  0  0  0  0  0  0  0  0  0  0  0
   13.8094  -22.4055  -11.4696 C   0  0  0  0  0  0  0  0  0  0  0  0
   15.6209  -23.5803   -9.5694 C   0  0  0  0  0  0  0  0  0  0  0  0
   12.7200  -24.4819  -10.7463 C   0  0  0  0  0  0  0  0  0  0  0  0
   16.4024  -24.5872  -10.7789 C   0  0  0  0  0  0  0  0  0  0  0  0
   15.0386  -21.2709  -11.1105 C   0  0  0  0  0  0  0  0  0  0  0  0
   12.7037  -26.2271  -12.4904 C   0  0  0  0  0  0  0  0  0  0  0  0
   12.2626  -28.5768  -13.4700 C   0  0  0  0  0  0  0  0  0  0  0  0
    9.0370  -22.1299   -8.8345 C   0  0  0  0  0  0  0  0  0  0  0  0
   10.8425  -29.8120  -11.0420 C   0  0  0  0  0  0  0  0  0  0  0  0
   15.3605  -22.3702  -10.9672 C   0  0  0  0  0  0  0  0  0  0  0  0
   11.0523  -19.8857   -7.8717 C   0  0  0  0  0  0  0  0  0  0  0  0
   13.6341  -28.4013  -11.0575 C   0  0  0  0  0  0  0  0  0  0  0  0
   12.6720  -24.3412   -8.1718 C   0  0  0  0  0  0  0  0  0  0  0  0
   16.0706  -21.9225   -9.5695 C   0  0  0  0  0  0  0  0  0  0  0  0
   12.9469  -22.0290   -8.0421 C   0  0  0  0  0  0  0  0  0  0  0  0
   11.7934  -20.4102   -8.5164 C   0  0  0  0  0  0  0  0  0  0  0  0
   11.5056  -21.3004   -6.1763 C   0  0  0  0  0  0  0  0  0  0  0  0
   10.8052  -19.7698   -9.1412 C   0  0  0  0  0  0  0  0  0  0  0  0
   10.5085  -22.8745   -8.3171 C   0  0  0  0  0  0  0  0  0  0  0  0
   14.0948  -20.4310   -7.0633 C   0  0  0  0  0  0  0  0  0  0  0  0
    7.7305  -23.1009   -9.4895 C   0  0  0  0  0  0  0  0  0  0  0  0
    8.9369  -30.7320  -11.3230 C   0  0  0  0  0  0  0  0  0  0  0  0
   10.2275  -23.2427  -10.7970 C   0  0  0  0  0  0  0  0  0  0  0  0
   11.9922  -26.5578   -9.4414 C   0  0  0  0  0  0  0  0  0  0  0  0
   13.0711  -22.0177   -5.4800 C   0  0  0  0  0  0  0  0  0  0  0  0
    7.3000  -31.0906  -12.5281 C   0  0  0  0  0  0  0  0  0  0  0  0
   14.7336  -27.1030  -11.2542 C   0  0  0  0  0  0  0  0  0  0  0  0
   12.2867  -19.7768   -9.9617 C   0  0  0  0  0  0  0  0  0  0  0  0
   10.2045  -18.5929   -8.4828 C   0  0  0  0  0  0  0  0  0  0  0  0
    9.4797  -23.3271   -7.3355 O   0  0  0  0  0  0  0  0  0  0  0  0
   13.2534  -18.6396  -10.0980 C   0  0  0  0  0  0  0  0  0  0  0  0
   14.2263  -21.7316   -6.7548 C   0  0  0  0  0  0  0  0  0  0  0  0
   11.4150  -25.1087   -7.4904 O   0  0  0  0  0  0  0  0  0  0  0  0
   11.1191  -28.2767   -9.5692 C   0  0  0  0  0  0  0  0  0  0  0  0
   10.8389  -22.6360   -5.2432 C   0  0  0  0  0  0  0  0  0  0  0  0
  2  1  1  0
  5  4  1  0
  6  5  1  0
  7  2  1  0
  7  3  1  0
 10  8  1  0
 11  8  1  0
 11  9  1  0
 12  9  1  0
 13  8  1  0
 14 12  1  0
 15 11  1  0
 16  6  1  0
 17  5  1  0
 17  6  1  0
 19  4  1  0
 20  9  1  0
 20 15  1  0
 22  4  1  0
 23  1  1  0
 23  2  1  0
 23  9  1  0
 24 12  1  0
 24 15  1  0
 24 20  1  0
 25  8  1  0
 25 10  1  0
 26 10  1  0
 27 26  1  0
 28 21  1  0
 28 26  1  0
 29 18  1  0
 29 21  1  0
 30 25  1  0
 31 18  1  0
 32 19  1  0
 33  2  1  0
 33  3  1  0
 34 16  1  0
 34 29  1  0
 35 27  1  0
 36 32  1  0
 37 22  1  0
 38 26  1  0
 38 28  1  0
 39 21  1  0
 39 28  1  0
 40 29  1  0
 41 38  1  0
 42 25  1  0
 42 30  1  0
 42 35  1  0
 43  7  1  0
 43 23  1  0
 44  4  1  0
 44 19  1  0
 44 34  1  0
 45 27  1  0
M  END
$$$$
