
     RDKit          2D

 40 43  0  0  0  0  0  0  0  0999 V2000
    8.9292    5.4797    0.0000 C   0  0  0  0  0  0  0  0  0  0  0  0
    8.1050    4.2265    0.0000 C   0  0  0  0  0  0  0  0  0  0  0  0
    6.6075    4.3137    0.0000 C   0  0  0  0  0  0  0  0  0  0  0  0
    5.7833    3.0604    0.0000 C   0  0  0  0  0  0  0  0  0  0  0  0
    4.9590    1.8072    0.0000 C   0  0  0  0  0  0  0  0  0  0  0  0
    4.1347    0.5540    0.0000 C   0  0  0  0  0  0  0  0  0  0  0  0
    3.1705    1.7031    0.0000 C   0  0  0  0  0  0  0  0  0  0  0  0
    1.6933    1.9635    0.0000 C   0  0  0  0  0  0  0  0  0  0  0  0
    0.3943    1.2135    0.0000 C   0  0  0  0  0  0  0  0  0  0  0  0
    1.2760    0.0000    0.0000 N   0  0  0  0  0  2  0  0  0  0  0  0
    0.3943   -1.2135    0.0000 C   0  0  0  0  0  0  0  0  0  0  0  0
    1.6933   -2.3556    0.0000 N   0  0  0  0  0  0  0  0  0  0  0  0
    3.1705   -2.0951    0.0000 N   0  0  0  0  0  0  0  0  0  0  0  0
    4.1347   -0.9460    0.0000 C   0  0  0  0  0  0  0  0  0  0  0  0
   -1.0323   -0.7500    0.0000 As  0  0  0  0  0  2  0  0  0  0  0  0
   -1.0323    0.7500    0.0000 C   0  0  0  0  0  0  0  0  0  0  0  0
   -2.1470    1.7537    0.0000 C   0  0  0  0  0  0  0  0  0  0  0  0
   -0.7204    2.2172    0.0000 C   0  0  0  0  0  0  0  0  0  0  0  0
    9.7535    6.7329    0.0000 H   0  0  0  0  0  0  0  0  0  0  0  0
   10.1825    4.6554    0.0000 H   0  0  0  0  0  0  0  0  0  0  0  0
    7.6760    6.3040    0.0000 H   0  0  0  0  0  0  0  0  0  0  0  0
    8.7782    2.8860    0.0000 H   0  0  0  0  0  0  0  0  0  0  0  0
    5.9343    5.6541    0.0000 H   0  0  0  0  0  0  0  0  0  0  0  0
    7.0365    2.2362    0.0000 H   0  0  0  0  0  0  0  0  0  0  0  0
    4.5300    3.8847    0.0000 H   0  0  0  0  0  0  0  0  0  0  0  0
    6.0869    1.0654    0.0000 H   0  0  0  0  0  0  0  0  0  0  0  0
    4.4188    2.3934    0.0000 H   0  0  0  0  0  0  0  0  0  0  0  0
    5.4656    0.3273    0.0000 H   0  0  0  0  0  0  0  0  0  0  0  0
    2.9964    3.1929    0.0000 H   0  0  0  0  0  0  0  0  0  0  0  0
    3.7407    2.2602    0.0000 H   0  0  0  0  0  0  0  0  0  0  0  0
    0.6023    2.9929    0.0000 H   0  0  0  0  0  0  0  0  0  0  0  0
    2.1981    3.3760    0.0000 H   0  0  0  0  0  0  0  0  0  0  0  0
    1.1892   -2.4856    0.0000 H   0  0  0  0  0  0  0  0  0  0  0  0
    1.4329   -3.8328    0.0000 H   0  0  0  0  0  0  0  0  0  0  0  0
    3.9205   -3.3941    0.0000 H   0  0  0  0  0  0  0  0  0  0  0  0
    5.6134   -0.6942    0.0000 H   0  0  0  0  0  0  0  0  0  0  0  0
    4.9590   -2.1992    0.0000 H   0  0  0  0  0  0  0  0  0  0  0  0
   -3.3290    0.8302    0.0000 H   0  0  0  0  0  0  0  0  0  0  0  0
   -2.8512    3.0781    0.0000 H   0  0  0  0  0  0  0  0  0  0  0  0
   -0.4086    3.6844    0.0000 H   0  0  0  0  0  0  0  0  0  0  0  0
  1  2  1  0
  2  3  2  3
  3  4  1  0
  4  5  1  0
  5  6  1  0
  6  7  1  0
  7  8  1  0
  9  8  1  6
  9 10  1  0
 10 11  1  0
 11 12  1  0
 12 13  1  0
 13 14  1  0
 11 15  1  0
 16 15  1  1
 16 17  1  0
 17 18  1  0
 14  6  1  0
 18 16  1  0
 16  9  1  0
 18  9  1  0
  1 19  1  0
  1 20  1  0
  1 21  1  0
  2 22  1  0
  3 23  1  0
  4 24  1  0
  4 25  1  0
  5 26  1  0
  5 27  1  0
  6 28  1  1
  7 29  1  0
  7 30  1  0
  8 31  1  0
  8 32  1  0
 11 33  1  1
 12 34  1  0
 13 35  1  0
 14 36  1  0
 14 37  1  0
 17 38  1  0
 17 39  1  0
 18 40  1  0
M  RAD  2  10   2  15   2
M  END
$$$$
