
     RDKit          2D

 54 57  0  0  0  0  0  0  0  0999 V2000
   -2.4460   -2.1595    0.0000 O   0  0  0  0  0  0  0  0  0  0  0  0
   -0.9460   -2.1595    0.0000 C   0  0  0  0  0  0  0  0  0  0  0  0
   -0.4330   -3.5691    0.0000 C   0  0  0  0  0  0  0  0  0  0  0  0
    0.8660   -4.3191    0.0000 C   0  0  0  0  0  0  0  0  0  0  0  0
    2.3432   -4.0586    0.0000 C   0  0  0  0  0  0  0  0  0  0  0  0
    3.8204   -4.3191    0.0000 C   0  0  0  0  0  0  0  0  0  0  0  0
    5.1195   -3.5691    0.0000 C   0  0  0  0  0  0  0  0  0  0  0  0
    5.6325   -2.1595    0.0000 C   0  0  0  0  0  0  0  0  0  0  0  0
    5.1195   -0.7500    0.0000 C   0  0  0  0  0  0  0  0  0  0  0  0
    3.8204   -0.0000    0.0000 C   0  0  0  0  0  0  0  0  0  0  0  0
    2.3432   -0.2605    0.0000 C   0  0  0  0  0  0  0  0  0  0  0  0
    3.3074   -1.4095    0.0000 O   0  0  0  0  0  0  0  0  0  0  0  0
    3.3074   -2.9095    0.0000 C   0  0  0  0  0  0  0  0  0  0  0  0
    0.8660    0.0000    0.0000 C   0  0  0  0  0  0  0  0  0  0  0  0
   -0.4330    0.7500    0.0000 C   0  0  0  0  0  0  0  0  0  0  0  0
   -1.9102    1.0105    0.0000 C   0  0  0  0  0  0  0  0  0  0  0  0
   -3.3874    1.2709    0.0000 C   0  0  0  0  0  0  0  0  0  0  0  0
   -2.8744    2.6805    0.0000 C   0  0  0  0  0  0  0  0  0  0  0  0
   -3.8386    3.8296    0.0000 C   0  0  0  0  0  0  0  0  0  0  0  0
   -5.3158    3.5691    0.0000 C   0  0  0  0  0  0  0  0  0  0  0  0
   -5.8288    2.1595    0.0000 C   0  0  0  0  0  0  0  0  0  0  0  0
   -4.8646    1.0105    0.0000 C   0  0  0  0  0  0  0  0  0  0  0  0
   -0.4330   -0.7500    0.0000 N   0  0  0  0  0  0  0  0  0  0  0  0
   -0.9543   -4.9756    0.0000 H   0  0  0  0  0  0  0  0  0  0  0  0
   -1.9305   -3.6563    0.0000 H   0  0  0  0  0  0  0  0  0  0  0  0
    1.5392   -5.6595    0.0000 H   0  0  0  0  0  0  0  0  0  0  0  0
   -0.0914   -5.4738    0.0000 H   0  0  0  0  0  0  0  0  0  0  0  0
    2.6547   -4.7924    0.0000 H   0  0  0  0  0  0  0  0  0  0  0  0
    3.5522   -5.0697    0.0000 H   0  0  0  0  0  0  0  0  0  0  0  0
    4.7779   -5.4738    0.0000 H   0  0  0  0  0  0  0  0  0  0  0  0
    5.6407   -4.9756    0.0000 H   0  0  0  0  0  0  0  0  0  0  0  0
    6.5952   -3.8382    0.0000 H   0  0  0  0  0  0  0  0  0  0  0  0
    6.9359   -2.9019    0.0000 H   0  0  0  0  0  0  0  0  0  0  0  0
    6.9359   -1.4171    0.0000 H   0  0  0  0  0  0  0  0  0  0  0  0
    6.5952   -0.4809    0.0000 H   0  0  0  0  0  0  0  0  0  0  0  0
    5.6407    0.6565    0.0000 H   0  0  0  0  0  0  0  0  0  0  0  0
    4.7779    1.1547    0.0000 H   0  0  0  0  0  0  0  0  0  0  0  0
    3.3157    1.4125    0.0000 H   0  0  0  0  0  0  0  0  0  0  0  0
    2.9293    1.1203    0.0000 H   0  0  0  0  0  0  0  0  0  0  0  0
    4.7444   -2.4793    0.0000 H   0  0  0  0  0  0  0  0  0  0  0  0
    4.4104   -3.9261    0.0000 H   0  0  0  0  0  0  0  0  0  0  0  0
    1.3791    1.4095    0.0000 H   0  0  0  0  0  0  0  0  0  0  0  0
    0.0800    2.1595    0.0000 H   0  0  0  0  0  0  0  0  0  0  0  0
   -1.4716    2.4449    0.0000 H   0  0  0  0  0  0  0  0  0  0  0  0
   -2.1707   -0.4667    0.0000 H   0  0  0  0  0  0  0  0  0  0  0  0
   -3.3874   -0.2291    0.0000 H   0  0  0  0  0  0  0  0  0  0  0  0
   -1.9102    3.8296    0.0000 H   0  0  0  0  0  0  0  0  0  0  0  0
   -1.4936    2.0944    0.0000 H   0  0  0  0  0  0  0  0  0  0  0  0
   -3.3256    5.2391    0.0000 H   0  0  0  0  0  0  0  0  0  0  0  0
   -6.2800    4.7181    0.0000 H   0  0  0  0  0  0  0  0  0  0  0  0
   -6.7930    1.0105    0.0000 H   0  0  0  0  0  0  0  0  0  0  0  0
   -7.1279    2.9095    0.0000 H   0  0  0  0  0  0  0  0  0  0  0  0
   -4.3516   -0.3991    0.0000 H   0  0  0  0  0  0  0  0  0  0  0  0
   -6.1637    0.2605    0.0000 H   0  0  0  0  0  0  0  0  0  0  0  0
  1  2  2  0
  2  3  1  0
  3  4  1  0
  4  5  1  0
  5  6  1  0
  6  7  1  0
  7  8  1  0
  8  9  1  0
  9 10  1  0
 10 11  1  0
 11 12  1  0
 12 13  1  0
 11 14  1  0
 14 15  1  0
 15 16  1  0
 16 17  1  0
 17 18  1  0
 18 19  1  0
 19 20  2  0
 20 21  1  0
 21 22  1  0
 15 23  1  0
 23  2  1  0
 13  5  1  0
 23 14  1  0
 22 17  1  0
  3 24  1  0
  3 25  1  0
  4 26  1  0
  4 27  1  0
  5 28  1  6
  6 29  1  0
  6 30  1  0
  7 31  1  0
  7 32  1  0
  8 33  1  0
  8 34  1  0
  9 35  1  0
  9 36  1  0
 10 37  1  0
 10 38  1  0
 11 39  1  6
 13 40  1  0
 13 41  1  0
 14 42  1  1
 15 43  1  6
 16 44  1  0
 16 45  1  0
 17 46  1  1
 18 47  1  0
 18 48  1  0
 19 49  1  0
 20 50  1  0
 21 51  1  0
 21 52  1  0
 22 53  1  0
 22 54  1  0
M  END
$$$$
