
     RDKit          2D

 26 28  0  0  0  0  0  0  0  0999 V2000
    0.1771    2.1203    0.0000 O   0  0  0  0  0  0  0  0  0  0  0  0
   -0.4330    0.7500    0.0000 C   0  0  0  0  0  0  0  0  0  0  0  0
    0.8660    0.0000    0.0000 O   0  0  0  0  0  0  0  0  0  0  0  0
   -0.4330   -0.7500    0.0000 C   0  0  0  0  0  0  0  0  0  0  0  0
   -1.8596   -1.2135    0.0000 C   0  0  0  0  0  0  0  0  0  0  0  0
   -2.7413    0.0000    0.0000 C   0  0  0  0  0  0  0  0  0  0  0  0
   -4.2398   -0.0673    0.0000 C   0  0  0  0  0  0  0  0  0  0  0  0
   -5.2267    1.0623    0.0000 C   0  0  0  0  0  0  0  0  0  0  0  0
   -4.9588    2.5382    0.0000 C   0  0  0  0  0  0  0  0  0  0  0  0
   -3.6379    3.2490    0.0000 C   0  0  0  0  0  0  0  0  0  0  0  0
   -2.2587    2.6595    0.0000 C   0  0  0  0  0  0  0  0  0  0  0  0
   -1.8596    1.2135    0.0000 C   0  0  0  0  0  0  0  0  0  0  0  0
    1.6689    2.2771    0.0000 H   0  0  0  0  0  0  0  0  0  0  0  0
    0.1771   -2.1203    0.0000 H   0  0  0  0  0  0  0  0  0  0  0  0
   -1.2495   -2.5838    0.0000 H   0  0  0  0  0  0  0  0  0  0  0  0
   -2.9386   -2.2556    0.0000 H   0  0  0  0  0  0  0  0  0  0  0  0
   -3.2684   -1.0947    0.0000 H   0  0  0  0  0  0  0  0  0  0  0  0
   -4.2095   -1.2819    0.0000 H   0  0  0  0  0  0  0  0  0  0  0  0
   -5.5607   -0.7781    0.0000 H   0  0  0  0  0  0  0  0  0  0  0  0
   -6.6726    0.6633    0.0000 H   0  0  0  0  0  0  0  0  0  0  0  0
   -6.1724    3.4199    0.0000 H   0  0  0  0  0  0  0  0  0  0  0  0
   -4.6249    4.3786    0.0000 H   0  0  0  0  0  0  0  0  0  0  0  0
   -2.9108    4.5610    0.0000 H   0  0  0  0  0  0  0  0  0  0  0  0
   -1.8129    4.0917    0.0000 H   0  0  0  0  0  0  0  0  0  0  0  0
   -0.7602    2.7268    0.0000 H   0  0  0  0  0  0  0  0  0  0  0  0
   -3.3220    1.5473    0.0000 H   0  0  0  0  0  0  0  0  0  0  0  0
  1  2  1  0
  2  3  1  0
  3  4  1  0
  4  5  1  0
  5  6  1  0
  6  7  1  0
  7  8  1  0
  8  9  2  0
  9 10  1  0
 10 11  1  0
 11 12  1  0
  4  2  1  0
 12  6  1  0
 12  2  1  0
  1 13  1  0
  4 14  1  0
  5 15  1  0
  5 16  1  0
  6 17  1  0
  7 18  1  0
  7 19  1  0
  8 20  1  0
  9 21  1  0
 10 22  1  0
 10 23  1  0
 11 24  1  0
 11 25  1  0
 12 26  1  0
M  END
$$$$
