
     RDKit          2D

 18 23  0  0  0  0  0  0  0  0999 V2000
   -1.1830    2.0490    0.0000 O   0  0  0  0  0  0  0  0  0  0  0  0
   -0.4330    0.7500    0.0000 C   0  0  0  0  0  0  0  0  0  0  0  0
    0.8660    0.0000    0.0000 C   0  0  0  0  0  0  0  0  0  0  0  0
    1.6160   -1.2990    0.0000 C   0  0  0  0  0  0  0  0  0  0  0  0
    0.3170   -2.0490    0.0000 C   0  0  0  0  0  0  0  0  0  0  0  0
   -0.4330   -0.7500    0.0000 C   0  0  0  0  0  0  0  0  0  0  0  0
   -1.3028   -1.5158    0.0000 N   0  0  0  0  0  0  0  0  0  0  0  0
   -1.6910   -0.0670    0.0000 N   0  0  0  0  0  0  0  0  0  0  0  0
   -3.1399   -0.4552    0.0000 C   0  0  0  0  0  0  0  0  0  0  0  0
   -4.2006   -1.5158    0.0000 N   0  0  0  0  0  0  0  0  0  0  0  0
   -2.7517   -1.9041    0.0000 C   0  0  0  0  0  0  0  0  0  0  0  0
   -0.4330    3.3481    0.0000 H   0  0  0  0  0  0  0  0  0  0  0  0
    1.9267    1.0607    0.0000 H   0  0  0  0  0  0  0  0  0  0  0  0
    2.3660   -2.5981    0.0000 H   0  0  0  0  0  0  0  0  0  0  0  0
    2.9151   -0.5490    0.0000 H   0  0  0  0  0  0  0  0  0  0  0  0
   -1.2301   -0.7639    0.0000 H   0  0  0  0  0  0  0  0  0  0  0  0
   -3.8899    0.8439    0.0000 H   0  0  0  0  0  0  0  0  0  0  0  0
   -5.6495   -1.9041    0.0000 H   0  0  0  0  0  0  0  0  0  0  0  0
  2  1  1  6
  2  3  1  0
  3  4  1  0
  5  4  1  1
  5  6  1  0
  5  7  1  0
  7  8  1  0
  8  9  1  0
  9 10  1  0
 11 10  1  6
  6  2  1  0
 11  7  1  0
  8  2  1  0
 11  9  1  0
  6  3  1  0
 11  5  1  0
  1 12  1  0
  3 13  1  6
  4 14  1  0
  4 15  1  0
  6 16  1  6
  9 17  1  6
 10 18  1  0
M  END
$$$$
