
     RDKit          2D

 57 62  0  0  0  0  0  0  0  0999 V2000
    5.1737    4.4286    0.0000 C   0  0  0  0  0  0  0  0  0  0  0  0
    3.7642    4.9416    0.0000 C   0  0  0  0  0  0  0  0  0  0  0  0
    3.5037    6.4188    0.0000 C   0  0  0  0  0  0  0  0  0  0  0  0
    3.2432    7.8960    0.0000 C   0  0  0  0  0  0  0  0  0  0  0  0
    1.7432    7.8960    0.0000 C   0  0  0  0  0  0  0  0  0  0  0  0
    3.5037    9.3732    0.0000 C   0  0  0  0  0  0  0  0  0  0  0  0
    4.6528    8.4090    0.0000 C   0  0  0  0  0  0  0  0  0  0  0  0
    5.8018    9.3732    0.0000 C   0  0  0  0  0  0  0  0  0  0  0  0
    5.4028    7.1100    0.0000 O   0  0  0  0  0  0  0  0  0  0  0  0
    2.6151    3.9774    0.0000 C   0  0  0  0  0  0  0  0  0  0  0  0
    3.5793    2.8283    0.0000 N   0  0  0  0  0  0  0  0  0  0  0  0
    1.4661    3.0132    0.0000 C   0  0  0  0  0  0  0  0  0  0  0  0
    0.3170    2.0490    0.0000 C   0  0  0  0  0  0  0  0  0  0  0  0
   -0.4330    3.3481    0.0000 C   0  0  0  0  0  0  0  0  0  0  0  0
   -1.1830    4.6471    0.0000 C   0  0  0  0  0  0  0  0  0  0  0  0
   -3.4330    3.3481    0.0000 C   0  0  0  0  0  0  0  0  0  0  0  0
   -2.6830    2.0490    0.0000 C   0  0  0  0  0  0  0  0  0  0  0  0
   -1.9330    0.7500    0.0000 C   0  0  0  0  0  0  0  0  0  0  0  0
   -0.4330    0.7500    0.0000 C   0  0  0  0  0  0  0  0  0  0  0  0
    0.8660    0.0000    0.0000 C   0  0  0  0  0  0  0  0  0  0  0  0
    1.8302    1.1491    0.0000 C   0  0  0  0  0  0  0  0  0  0  0  0
   -0.4330   -0.7500    0.0000 C   0  0  0  0  0  0  0  0  0  0  0  0
    0.0800   -2.1595    0.0000 C   0  0  0  0  0  0  0  0  0  0  0  0
   -1.9330    3.3481    0.0000 C   0  0  0  0  0  0  0  0  0  0  0  0
    6.3228    5.3927    0.0000 H   0  0  0  0  0  0  0  0  0  0  0  0
    5.4935    3.3828    0.0000 H   0  0  0  0  0  0  0  0  0  0  0  0
    4.8504    6.3246    0.0000 H   0  0  0  0  0  0  0  0  0  0  0  0
    2.3418    6.0635    0.0000 H   0  0  0  0  0  0  0  0  0  0  0  0
    0.2432    7.8960    0.0000 H   0  0  0  0  0  0  0  0  0  0  0  0
    1.5787    9.2359    0.0000 H   0  0  0  0  0  0  0  0  0  0  0  0
    1.5951    6.6901    0.0000 H   0  0  0  0  0  0  0  0  0  0  0  0
    2.3009    9.9861    0.0000 H   0  0  0  0  0  0  0  0  0  0  0  0
    4.0312   10.6159    0.0000 H   0  0  0  0  0  0  0  0  0  0  0  0
    6.9509   10.3374    0.0000 H   0  0  0  0  0  0  0  0  0  0  0  0
    6.7660    8.2242    0.0000 H   0  0  0  0  0  0  0  0  0  0  0  0
    5.0666   10.5054    0.0000 H   0  0  0  0  0  0  0  0  0  0  0  0
    6.9028    7.1100    0.0000 H   0  0  0  0  0  0  0  0  0  0  0  0
    1.6509    5.1265    0.0000 H   0  0  0  0  0  0  0  0  0  0  0  0
    4.6713    2.8855    0.0000 H   0  0  0  0  0  0  0  0  0  0  0  0
    3.3060    1.6445    0.0000 H   0  0  0  0  0  0  0  0  0  0  0  0
    0.5019    4.1623    0.0000 H   0  0  0  0  0  0  0  0  0  0  0  0
    2.4302    1.8642    0.0000 H   0  0  0  0  0  0  0  0  0  0  0  0
    1.1131    1.6608    0.0000 H   0  0  0  0  0  0  0  0  0  0  0  0
   -1.5120    2.3060    0.0000 H   0  0  0  0  0  0  0  0  0  0  0  0
   -1.1830    6.1471    0.0000 H   0  0  0  0  0  0  0  0  0  0  0  0
   -4.7321    4.0981    0.0000 H   0  0  0  0  0  0  0  0  0  0  0  0
   -3.9821    1.2990    0.0000 H   0  0  0  0  0  0  0  0  0  0  0  0
   -1.8545   -0.7479    0.0000 H   0  0  0  0  0  0  0  0  0  0  0  0
   -3.3426    0.2370    0.0000 H   0  0  0  0  0  0  0  0  0  0  0  0
    1.9631   -1.0230    0.0000 H   0  0  0  0  0  0  0  0  0  0  0  0
    2.7188    1.9777    0.0000 H   0  0  0  0  0  0  0  0  0  0  0  0
    2.9793    0.1849    0.0000 H   0  0  0  0  0  0  0  0  0  0  0  0
    0.9486    2.3626    0.0000 H   0  0  0  0  0  0  0  0  0  0  0  0
   -1.8675   -1.1886    0.0000 H   0  0  0  0  0  0  0  0  0  0  0  0
    0.5930   -3.5691    0.0000 H   0  0  0  0  0  0  0  0  0  0  0  0
   -1.3295   -2.6726    0.0000 H   0  0  0  0  0  0  0  0  0  0  0  0
    1.5416   -1.8222    0.0000 H   0  0  0  0  0  0  0  0  0  0  0  0
  1  2  2  3
  2  3  1  0
  3  4  1  0
  4  5  1  0
  4  6  1  0
  6  7  1  0
  7  8  1  0
  7  9  1  0
  2 10  1  0
 10 11  1  0
 10 12  1  0
 12 13  1  0
 13 14  1  0
 14 15  1  0
 15 16  1  0
 16 17  1  0
 17 18  1  0
 18 19  1  0
 19 20  1  0
 20 21  1  0
 20 22  1  0
 22 23  1  0
 17 24  1  0
  7  4  1  0
 19 13  1  0
 24 14  1  0
 24 15  1  0
 24 16  1  0
 22 19  1  0
  1 25  1  0
  1 26  1  0
  3 27  1  0
  3 28  1  0
  5 29  1  0
  5 30  1  0
  5 31  1  0
  6 32  1  0
  6 33  1  0
  8 34  1  0
  8 35  1  0
  8 36  1  0
  9 37  1  0
 10 38  1  0
 11 39  1  0
 11 40  1  0
 12 41  1  0
 12 42  1  0
 13 43  1  0
 14 44  1  0
 15 45  1  0
 16 46  1  0
 17 47  1  0
 18 48  1  0
 18 49  1  0
 20 50  1  0
 21 51  1  0
 21 52  1  0
 21 53  1  0
 22 54  1  0
 23 55  1  0
 23 56  1  0
 23 57  1  0
M  END
$$$$
