
     RDKit          3D

 22 24  0  0  0  0  0  0  0  0999 V2000
   25.2926  -24.8469  -12.8643 As  0  0  0  0  0  3  0  0  0  0  0  0
   27.6187  -25.9019  -14.0612 O   0  0  0  0  0  0  0  0  0  0  0  0
   24.5470  -25.2392  -14.6570 C   0  0  0  0  0  0  0  0  0  0  0  0
   28.0481  -27.2505  -14.0118 C   0  0  0  0  0  0  0  0  0  0  0  0
   28.1139  -28.0249  -15.3823 C   0  0  0  0  0  0  0  0  0  0  0  0
   26.8343  -27.9537  -16.1849 C   0  0  0  0  0  0  0  0  0  0  0  0
   26.2503  -26.8172  -16.5961 C   0  0  0  0  0  0  0  0  0  0  0  0
   27.1948  -27.9790  -12.9926 C   0  0  0  0  0  0  0  0  0  0  0  0
   26.6405  -25.3943  -16.2382 C   0  0  0  0  0  0  0  0  0  0  0  0
   25.3870  -24.5973  -15.7814 C   0  0  0  0  0  0  0  0  0  0  0  0
   25.8615  -27.8141  -12.8686 C   0  0  0  0  0  0  0  0  0  0  0  0
   28.6755  -29.4722  -15.2690 C   0  0  0  0  0  0  0  0  0  0  0  0
   27.7011  -30.5267  -14.7882 C   0  0  0  0  0  0  0  0  0  0  0  0
   27.8387  -25.2276  -15.2768 C   0  0  0  0  0  0  0  0  0  0  0  0
   27.9994  -31.3451  -13.7678 C   0  0  0  0  0  0  0  0  0  0  0  0
   27.0870  -32.4769  -13.3716 C   0  0  0  0  0  0  0  0  0  0  0  0
   27.2310  -33.8063  -14.0533 C   0  0  0  0  0  0  0  0  0  0  0  0
   26.2524  -34.4175  -14.4540 O   0  0  0  0  0  0  0  0  0  0  0  0
   25.2357  -26.6759  -12.0858 C   0  0  0  0  0  0  0  0  0  0  0  0
   26.6347  -32.5001  -11.9813 C   0  0  0  0  0  0  0  0  0  0  0  0
   23.6157  -24.2432  -12.0166 C   0  0  0  0  0  0  0  0  0  0  0  0
   25.6906  -32.1067  -13.0515 N   0  0  0  0  0  0  0  0  0  0  0  0
  3  1  1  0
  4  2  1  0
  5  4  1  0
  6  5  1  0
  7  6  2  0
  8  4  1  0
  9  7  1  0
 10  3  1  0
 10  9  1  0
 11  8  2  0
 12  5  1  0
 13 12  1  0
 14  2  1  0
 14  9  1  0
 15 13  2  3
 16 15  1  0
 17 16  1  0
 18 17  2  0
 19  1  1  0
 19 11  1  0
 20 16  1  0
 21  1  1  0
 22 16  1  0
 22 20  1  0
M  END
$$$$
