
     RDKit          2D

107112  0  0  0  0  0  0  0  0999 V2000
    7.0163   -6.9134    0.0000 C   0  0  0  0  0  0  0  0  0  0  0  0
    5.6067   -6.4004    0.0000 C   0  0  0  0  0  0  0  0  0  0  0  0
    4.1972   -5.8874    0.0000 N   0  0  0  0  0  0  0  0  0  0  0  0
    3.0481   -6.8515    0.0000 C   0  0  0  0  0  0  0  0  0  0  0  0
    1.8991   -7.8157    0.0000 C   0  0  0  0  0  0  0  0  0  0  0  0
    0.4895   -8.3287    0.0000 C   0  0  0  0  0  0  0  0  0  0  0  0
    0.7500   -9.8060    0.0000 C   0  0  0  0  0  0  0  0  0  0  0  0
    0.7500   -6.8515    0.0000 C   0  0  0  0  0  0  0  0  0  0  0  0
    1.5000   -5.5525    0.0000 N   0  0  0  0  0  0  0  0  0  0  0  0
    0.7500   -4.2535    0.0000 C   0  0  0  0  0  0  0  0  0  0  0  0
   -0.6595   -4.7665    0.0000 C   0  0  0  0  0  0  0  0  0  0  0  0
   -0.1465   -6.1760    0.0000 C   0  0  0  0  0  0  0  0  0  0  0  0
   -1.5560   -6.6891    0.0000 C   0  0  0  0  0  0  0  0  0  0  0  0
   -1.0430   -8.0986    0.0000 C   0  0  0  0  0  0  0  0  0  0  0  0
   -0.2481   -9.3707    0.0000 C   0  0  0  0  0  0  0  0  0  0  0  0
   -1.2123  -10.5197    0.0000 C   0  0  0  0  0  0  0  0  0  0  0  0
   -1.9165  -11.8442    0.0000 C   0  0  0  0  0  0  0  0  0  0  0  0
   -2.6031   -9.9578    0.0000 C   0  0  0  0  0  0  0  0  0  0  0  0
   -2.4985   -8.4615    0.0000 C   0  0  0  0  0  0  0  0  0  0  0  0
   -3.6475   -7.4973    0.0000 C   0  0  0  0  0  0  0  0  0  0  0  0
   -3.3871   -6.0201    0.0000 C   0  0  0  0  0  0  0  0  0  0  0  0
   -4.8643   -5.7596    0.0000 C   0  0  0  0  0  0  0  0  0  0  0  0
   -4.6038   -4.2824    0.0000 C   0  0  0  0  0  0  0  0  0  0  0  0
   -6.0810   -4.0219    0.0000 C   0  0  0  0  0  0  0  0  0  0  0  0
   -3.1266   -4.5429    0.0000 C   0  0  0  0  0  0  0  0  0  0  0  0
   -2.8661   -3.0657    0.0000 O   0  0  0  0  0  0  0  0  0  0  0  0
   -2.0691   -5.2795    0.0000 C   0  0  0  0  0  0  0  0  0  0  0  0
    1.8991   -3.2893    0.0000 C   0  0  0  0  0  0  0  0  0  0  0  0
    2.6491   -1.9902    0.0000 N   0  0  0  0  0  0  0  0  0  0  0  0
    1.8991   -0.6912    0.0000 C   0  0  0  0  0  0  0  0  0  0  0  0
    1.1491    0.6078    0.0000 C   0  0  0  0  0  0  0  0  0  0  0  0
    0.3991    1.9069    0.0000 C   0  0  0  0  0  0  0  0  0  0  0  0
   -0.3509    3.2059    0.0000 C   0  0  0  0  0  0  0  0  0  0  0  0
   -1.1009    4.5049    0.0000 C   0  0  0  0  0  0  0  0  0  0  0  0
    0.4895   -2.7762    0.0000 C   0  0  0  0  0  0  0  0  0  0  0  0
    0.7500   -1.2990    0.0000 C   0  0  0  0  0  0  0  0  0  0  0  0
    1.5000    0.0000    0.0000 C   0  0  0  0  0  0  0  0  0  0  0  0
    0.7500    1.2990    0.0000 C   0  0  0  0  0  0  0  0  0  0  0  0
   -0.7500    1.2990    0.0000 O   0  0  0  0  0  0  0  0  0  0  0  0
   -1.5000    0.0000    0.0000 C   0  0  0  0  0  0  0  0  0  0  0  0
   -2.6491    0.9642    0.0000 O   0  0  0  0  0  0  0  0  0  0  0  0
   -2.6491   -0.9642    0.0000 C   0  0  0  0  0  0  0  0  0  0  0  0
   -3.7981   -1.9284    0.0000 C   0  0  0  0  0  0  0  0  0  0  0  0
   -0.7500   -1.2990    0.0000 C   0  0  0  0  0  0  0  0  0  0  0  0
    8.4258   -7.4264    0.0000 H   0  0  0  0  0  0  0  0  0  0  0  0
    4.1187   -4.3894    0.0000 H   0  0  0  0  0  0  0  0  0  0  0  0
    4.0123   -8.0006    0.0000 H   0  0  0  0  0  0  0  0  0  0  0  0
    2.5599   -5.4332    0.0000 H   0  0  0  0  0  0  0  0  0  0  0  0
    2.7115   -8.8939    0.0000 H   0  0  0  0  0  0  0  0  0  0  0  0
   -0.3699   -8.5431    0.0000 H   0  0  0  0  0  0  0  0  0  0  0  0
    2.0982   -9.7353    0.0000 H   0  0  0  0  0  0  0  0  0  0  0  0
   -0.3599  -10.3002    0.0000 H   0  0  0  0  0  0  0  0  0  0  0  0
    1.1886  -11.2404    0.0000 H   0  0  0  0  0  0  0  0  0  0  0  0
   -0.0428   -6.7683    0.0000 H   0  0  0  0  0  0  0  0  0  0  0  0
    3.0000   -5.5525    0.0000 H   0  0  0  0  0  0  0  0  0  0  0  0
   -1.1726   -3.3570    0.0000 H   0  0  0  0  0  0  0  0  0  0  0  0
    0.1909   -7.6376    0.0000 H   0  0  0  0  0  0  0  0  0  0  0  0
    1.3151   -5.8386    0.0000 H   0  0  0  0  0  0  0  0  0  0  0  0
   -3.0478   -6.8458    0.0000 H   0  0  0  0  0  0  0  0  0  0  0  0
    0.4513   -7.9680    0.0000 H   0  0  0  0  0  0  0  0  0  0  0  0
    1.1222   -8.7606    0.0000 H   0  0  0  0  0  0  0  0  0  0  0  0
    0.3378  -10.7515    0.0000 H   0  0  0  0  0  0  0  0  0  0  0  0
    0.0312  -11.3585    0.0000 H   0  0  0  0  0  0  0  0  0  0  0  0
   -3.3169  -11.3066    0.0000 H   0  0  0  0  0  0  0  0  0  0  0  0
   -0.5921  -12.5484    0.0000 H   0  0  0  0  0  0  0  0  0  0  0  0
   -2.6207  -13.1686    0.0000 H   0  0  0  0  0  0  0  0  0  0  0  0
   -3.1892  -11.3386    0.0000 H   0  0  0  0  0  0  0  0  0  0  0  0
   -4.0803   -9.6974    0.0000 H   0  0  0  0  0  0  0  0  0  0  0  0
   -4.9840   -8.1783    0.0000 H   0  0  0  0  0  0  0  0  0  0  0  0
   -1.8907   -5.9154    0.0000 H   0  0  0  0  0  0  0  0  0  0  0  0
   -6.3622   -5.6812    0.0000 H   0  0  0  0  0  0  0  0  0  0  0  0
   -5.3029   -7.1941    0.0000 H   0  0  0  0  0  0  0  0  0  0  0  0
   -4.7085   -2.7861    0.0000 H   0  0  0  0  0  0  0  0  0  0  0  0
   -6.5196   -5.4564    0.0000 H   0  0  0  0  0  0  0  0  0  0  0  0
   -5.8205   -2.5447    0.0000 H   0  0  0  0  0  0  0  0  0  0  0  0
   -7.5582   -3.7615    0.0000 H   0  0  0  0  0  0  0  0  0  0  0  0
   -1.6302   -4.4382    0.0000 H   0  0  0  0  0  0  0  0  0  0  0  0
   -4.1241   -2.2487    0.0000 H   0  0  0  0  0  0  0  0  0  0  0  0
   -2.0428   -3.7798    0.0000 H   0  0  0  0  0  0  0  0  0  0  0  0
   -3.5609   -5.4362    0.0000 H   0  0  0  0  0  0  0  0  0  0  0  0
    3.1571   -4.1062    0.0000 H   0  0  0  0  0  0  0  0  0  0  0  0
    4.1491   -1.9902    0.0000 H   0  0  0  0  0  0  0  0  0  0  0  0
    3.1981    0.0588    0.0000 H   0  0  0  0  0  0  0  0  0  0  0  0
    0.4572   -1.1046    0.0000 H   0  0  0  0  0  0  0  0  0  0  0  0
    2.4481    1.3578    0.0000 H   0  0  0  0  0  0  0  0  0  0  0  0
   -0.1500   -0.1422    0.0000 H   0  0  0  0  0  0  0  0  0  0  0  0
    1.6981    2.6569    0.0000 H   0  0  0  0  0  0  0  0  0  0  0  0
   -1.0428    1.4935    0.0000 H   0  0  0  0  0  0  0  0  0  0  0  0
    0.9481    3.9559    0.0000 H   0  0  0  0  0  0  0  0  0  0  0  0
   -1.7317    2.6199    0.0000 H   0  0  0  0  0  0  0  0  0  0  0  0
   -2.4000    3.7549    0.0000 H   0  0  0  0  0  0  0  0  0  0  0  0
    0.1981    5.2549    0.0000 H   0  0  0  0  0  0  0  0  0  0  0  0
   -1.8509    5.8040    0.0000 H   0  0  0  0  0  0  0  0  0  0  0  0
   -1.0105   -2.7762    0.0000 H   0  0  0  0  0  0  0  0  0  0  0  0
    2.2418   -1.4558    0.0000 H   0  0  0  0  0  0  0  0  0  0  0  0
    2.7580    0.8169    0.0000 H   0  0  0  0  0  0  0  0  0  0  0  0
    2.6491   -0.9642    0.0000 H   0  0  0  0  0  0  0  0  0  0  0  0
    0.4895    2.7762    0.0000 H   0  0  0  0  0  0  0  0  0  0  0  0
    2.0865    1.9801    0.0000 H   0  0  0  0  0  0  0  0  0  0  0  0
   -2.5706    2.4621    0.0000 H   0  0  0  0  0  0  0  0  0  0  0  0
   -3.6132    0.1849    0.0000 H   0  0  0  0  0  0  0  0  0  0  0  0
   -1.8321   -2.2222    0.0000 H   0  0  0  0  0  0  0  0  0  0  0  0
   -4.7623   -0.7793    0.0000 H   0  0  0  0  0  0  0  0  0  0  0  0
   -2.4861   -2.6555    0.0000 H   0  0  0  0  0  0  0  0  0  0  0  0
   -5.0562   -2.7453    0.0000 H   0  0  0  0  0  0  0  0  0  0  0  0
   -0.4895   -2.7762    0.0000 H   0  0  0  0  0  0  0  0  0  0  0  0
   -2.0865   -1.9801    0.0000 H   0  0  0  0  0  0  0  0  0  0  0  0
  1  2  3  0
  2  3  1  0
  3  4  1  0
  4  5  1  0
  5  6  1  0
  6  7  1  0
  6  8  1  0
  8  9  1  0
 10  9  1  6
 10 11  1  0
 11 12  1  0
 12 13  1  0
 13 14  1  0
 14 15  1  0
 15 16  1  0
 16 17  1  0
 16 18  1  0
 18 19  1  0
 19 20  2  3
 20 21  1  0
 21 22  1  0
 22 23  1  0
 23 24  1  0
 23 25  1  0
 25 26  1  0
 13 27  1  0
 10 28  1  0
 28 29  1  0
 29 30  1  0
 30 31  1  0
 31 32  1  0
 32 33  1  0
 33 34  1  0
 28 35  1  0
 35 36  1  0
 36 37  1  0
 37 38  1  0
 38 39  1  0
 39 40  1  0
 40 41  1  1
 40 42  1  0
 42 43  1  0
 40 44  1  0
  8  5  1  0
 35 10  1  0
 44 36  1  0
 27 11  1  0
 19 14  1  0
 25 21  1  0
  1 45  1  0
  3 46  1  0
  4 47  1  0
  4 48  1  0
  5 49  1  1
  6 50  1  6
  7 51  1  0
  7 52  1  0
  7 53  1  0
  8 54  1  6
  9 55  1  0
 11 56  1  6
 12 57  1  0
 12 58  1  0
 13 59  1  6
 14 60  1  6
 15 61  1  0
 15 62  1  0
 16 63  1  6
 17 64  1  0
 17 65  1  0
 17 66  1  0
 18 67  1  0
 18 68  1  0
 20 69  1  0
 21 70  1  1
 22 71  1  0
 22 72  1  0
 23 73  1  6
 24 74  1  0
 24 75  1  0
 24 76  1  0
 25 77  1  6
 26 78  1  0
 27 79  1  0
 27 80  1  0
 28 81  1  1
 29 82  1  0
 30 83  1  0
 30 84  1  0
 31 85  1  0
 31 86  1  0
 32 87  1  0
 32 88  1  0
 33 89  1  0
 33 90  1  0
 34 91  1  0
 34 92  1  0
 34 93  1  0
 35 94  1  1
 36 95  1  1
 37 96  1  0
 37 97  1  0
 38 98  1  0
 38 99  1  0
 41100  1  0
 42101  1  0
 42102  1  0
 43103  1  0
 43104  1  0
 43105  1  0
 44106  1  0
 44107  1  0
M  END
$$$$
