
     RDKit          2D

 54 58  0  0  0  0  0  0  0  0999 V2000
    0.0203    4.4779    0.0000 C   0  0  0  0  0  0  0  0  0  0  0  0
   -1.3893    3.9649    0.0000 C   0  0  0  0  0  0  0  0  0  0  0  0
   -2.5383    4.9291    0.0000 C   0  0  0  0  0  0  0  0  0  0  0  0
   -3.6874    5.8933    0.0000 C   0  0  0  0  0  0  0  0  0  0  0  0
   -4.4374    7.1923    0.0000 C   0  0  0  0  0  0  0  0  0  0  0  0
   -2.9374    7.1923    0.0000 C   0  0  0  0  0  0  0  0  0  0  0  0
   -1.6498    2.4877    0.0000 C   0  0  0  0  0  0  0  0  0  0  0  0
   -1.9102    1.0105    0.0000 C   0  0  0  0  0  0  0  0  0  0  0  0
   -2.1707   -0.4667    0.0000 C   0  0  0  0  0  0  0  0  0  0  0  0
   -2.4312   -1.9440    0.0000 S   0  0  0  0  0  0  0  0  0  0  0  0
   -0.4330    0.7500    0.0000 C   0  0  0  0  0  0  0  0  0  0  0  0
    0.8660    0.0000    0.0000 C   0  0  0  0  0  0  0  0  0  0  0  0
   -0.4330   -0.7500    0.0000 C   0  0  0  0  0  0  0  0  0  0  0  0
   -0.4330   -2.2500    0.0000 C   0  0  0  0  0  0  0  0  0  0  0  0
   -1.7321   -1.5000    0.0000 C   0  0  0  0  0  0  0  0  0  0  0  0
   -3.0311   -2.2500    0.0000 C   0  0  0  0  0  0  0  0  0  0  0  0
   -3.0311   -0.7500    0.0000 C   0  0  0  0  0  0  0  0  0  0  0  0
   -4.5083   -0.4895    0.0000 C   0  0  0  0  0  0  0  0  0  0  0  0
   -5.9855   -0.2291    0.0000 C   0  0  0  0  0  0  0  0  0  0  0  0
   -7.4627    0.0314    0.0000 C   0  0  0  0  0  0  0  0  0  0  0  0
   -8.7618    0.7814    0.0000 C   0  0  0  0  0  0  0  0  0  0  0  0
   -7.4627    1.5314    0.0000 C   0  0  0  0  0  0  0  0  0  0  0  0
    0.2807    5.9551    0.0000 H   0  0  0  0  0  0  0  0  0  0  0  0
    1.1693    3.5137    0.0000 H   0  0  0  0  0  0  0  0  0  0  0  0
   -1.4413    5.9520    0.0000 H   0  0  0  0  0  0  0  0  0  0  0  0
   -3.5025    3.7800    0.0000 H   0  0  0  0  0  0  0  0  0  0  0  0
   -4.8365    4.9291    0.0000 H   0  0  0  0  0  0  0  0  0  0  0  0
   -5.8470    6.6793    0.0000 H   0  0  0  0  0  0  0  0  0  0  0  0
   -4.6979    8.6695    0.0000 H   0  0  0  0  0  0  0  0  0  0  0  0
   -2.6769    8.6695    0.0000 H   0  0  0  0  0  0  0  0  0  0  0  0
   -1.4758    6.8549    0.0000 H   0  0  0  0  0  0  0  0  0  0  0  0
   -0.1518    2.4092    0.0000 H   0  0  0  0  0  0  0  0  0  0  0  0
   -3.1270    2.7482    0.0000 H   0  0  0  0  0  0  0  0  0  0  0  0
   -3.3447    1.4491    0.0000 H   0  0  0  0  0  0  0  0  0  0  0  0
   -3.6479   -0.2063    0.0000 H   0  0  0  0  0  0  0  0  0  0  0  0
   -0.8004   -1.0769    0.0000 H   0  0  0  0  0  0  0  0  0  0  0  0
   -1.4082   -3.0410    0.0000 H   0  0  0  0  0  0  0  0  0  0  0  0
    0.2480    2.0865    0.0000 H   0  0  0  0  0  0  0  0  0  0  0  0
    1.8302    1.1491    0.0000 H   0  0  0  0  0  0  0  0  0  0  0  0
    1.8302   -1.1491    0.0000 H   0  0  0  0  0  0  0  0  0  0  0  0
    1.0442   -2.5105    0.0000 H   0  0  0  0  0  0  0  0  0  0  0  0
   -0.7704   -3.7116    0.0000 H   0  0  0  0  0  0  0  0  0  0  0  0
   -2.5181   -3.6595    0.0000 H   0  0  0  0  0  0  0  0  0  0  0  0
   -4.4655   -2.6886    0.0000 H   0  0  0  0  0  0  0  0  0  0  0  0
   -2.8744    0.7418    0.0000 H   0  0  0  0  0  0  0  0  0  0  0  0
   -4.4298    1.0084    0.0000 H   0  0  0  0  0  0  0  0  0  0  0  0
   -4.9469   -1.9240    0.0000 H   0  0  0  0  0  0  0  0  0  0  0  0
   -6.2460   -1.7063    0.0000 H   0  0  0  0  0  0  0  0  0  0  0  0
   -5.5469    1.2054    0.0000 H   0  0  0  0  0  0  0  0  0  0  0  0
   -7.9758   -1.3781    0.0000 H   0  0  0  0  0  0  0  0  0  0  0  0
   -9.7259   -0.3676    0.0000 H   0  0  0  0  0  0  0  0  0  0  0  0
   -9.7259    1.9305    0.0000 H   0  0  0  0  0  0  0  0  0  0  0  0
   -7.9758    2.9410    0.0000 H   0  0  0  0  0  0  0  0  0  0  0  0
   -6.0283    1.9700    0.0000 H   0  0  0  0  0  0  0  0  0  0  0  0
  1  2  2  3
  2  3  1  0
  3  4  1  0
  4  5  1  0
  5  6  1  0
  2  7  1  0
  7  8  1  0
  8  9  1  0
  9 10  1  0
  8 11  1  0
 11 12  1  0
 12 13  1  0
 13 14  1  0
 14 15  1  0
 15 16  1  0
 16 17  1  0
 17 18  1  0
 18 19  1  0
 19 20  1  0
 20 21  1  0
 21 22  1  0
  6  4  1  0
 13 11  1  0
 17 15  1  0
 22 20  1  0
 15 13  1  0
  1 23  1  0
  1 24  1  0
  3 25  1  0
  3 26  1  0
  4 27  1  0
  5 28  1  0
  5 29  1  0
  6 30  1  0
  6 31  1  0
  7 32  1  0
  7 33  1  0
  8 34  1  0
  9 35  1  0
  9 36  1  0
 10 37  1  0
 11 38  1  0
 12 39  1  0
 12 40  1  0
 14 41  1  0
 14 42  1  0
 16 43  1  0
 16 44  1  0
 17 45  1  0
 18 46  1  0
 18 47  1  0
 19 48  1  0
 19 49  1  0
 20 50  1  0
 21 51  1  0
 21 52  1  0
 22 53  1  0
 22 54  1  0
M  END
$$$$
