
     RDKit          2D

 24 24  0  0  0  0  0  0  0  0999 V2000
    2.7944    2.2981    0.0000 C   0  0  0  0  0  0  0  0  0  0  0  0
    1.8302    1.1491    0.0000 Mg  0  0  0  0  0  2  0  0  0  0  0  0
    0.8660    0.0000    0.0000 C   0  0  0  0  0  0  0  0  0  0  0  0
   -0.4330    0.7500    0.0000 O   0  0  0  0  0  0  0  0  0  0  0  0
   -0.4330   -0.7500    0.0000 C   0  0  0  0  0  0  0  0  0  0  0  0
    0.0800   -2.1595    0.0000 C   0  0  0  0  0  0  0  0  0  0  0  0
   -1.9102   -1.0105    0.0000 Sb  0  0  0  0  0  3  0  0  0  0  0  0
   -2.8744    0.1386    0.0000 C   0  0  0  0  0  0  0  0  0  0  0  0
   -4.3516   -0.1219    0.0000 O   0  0  0  0  0  0  0  0  0  0  0  0
   -2.3614    1.5481    0.0000 O   0  0  0  0  0  0  0  0  0  0  0  0
   -3.3256    2.6972    0.0000 C   0  0  0  0  0  0  0  0  0  0  0  0
   -4.2897    3.8463    0.0000 O   0  0  0  0  0  0  0  0  0  0  0  0
   -2.1765    3.6614    0.0000 O   0  0  0  0  0  0  0  0  0  0  0  0
    3.7586    3.4472    0.0000 H   0  0  0  0  0  0  0  0  0  0  0  0
    1.6453    3.2623    0.0000 H   0  0  0  0  0  0  0  0  0  0  0  0
    3.9435    1.3340    0.0000 H   0  0  0  0  0  0  0  0  0  0  0  0
    1.8534   -0.9207    0.0000 H   0  0  0  0  0  0  0  0  0  0  0  0
    0.5930   -3.5691    0.0000 H   0  0  0  0  0  0  0  0  0  0  0  0
    1.3954   -1.8559    0.0000 H   0  0  0  0  0  0  0  0  0  0  0  0
   -1.3295   -2.6726    0.0000 H   0  0  0  0  0  0  0  0  0  0  0  0
   -2.4233   -2.4200    0.0000 H   0  0  0  0  0  0  0  0  0  0  0  0
   -4.4746    1.7330    0.0000 H   0  0  0  0  0  0  0  0  0  0  0  0
   -5.7669    3.5858    0.0000 H   0  0  0  0  0  0  0  0  0  0  0  0
   -2.4370    5.1386    0.0000 H   0  0  0  0  0  0  0  0  0  0  0  0
  1  2  1  0
  2  3  1  0
  3  4  1  0
  4  5  1  0
  5  6  1  0
  5  7  1  0
  7  8  1  0
  8  9  2  0
  8 10  1  0
 10 11  1  0
 11 12  1  0
 11 13  1  0
  5  3  1  0
  1 14  1  0
  1 15  1  0
  1 16  1  0
  3 17  1  0
  6 18  1  0
  6 19  1  0
  6 20  1  0
  7 21  1  0
 11 22  1  0
 12 23  1  0
 13 24  1  0
M  END
$$$$
