
     RDKit          2D

 59 61  0  0  0  0  0  0  0  0999 V2000
   -5.1292   -3.0432    0.0000 C   0  0  0  0  0  0  0  0  0  0  0  0
   -6.0645   -1.8705    0.0000 C   0  0  0  0  0  0  0  0  0  0  0  0
   -6.9997   -0.6977    0.0000 C   0  0  0  0  0  0  0  0  0  0  0  0
   -7.9349    0.4750    0.0000 C   0  0  0  0  0  0  0  0  0  0  0  0
   -9.1077   -0.4602    0.0000 N   0  0  0  0  0  0  0  0  0  0  0  0
  -10.5040    0.0878    0.0000 C   0  0  0  0  0  0  0  0  0  0  0  0
  -11.9003    0.6358    0.0000 C   0  0  0  0  0  0  0  0  0  0  0  0
  -13.2966    1.1838    0.0000 O   0  0  0  0  0  0  0  0  0  0  0  0
   -8.8702    1.6478    0.0000 C   0  0  0  0  0  0  0  0  0  0  0  0
   -7.6974    2.5830    0.0000 C   0  0  0  0  0  0  0  0  0  0  0  0
  -10.0429    0.7125    0.0000 C   0  0  0  0  0  0  0  0  0  0  0  0
  -10.9782    1.8853    0.0000 C   0  0  0  0  0  0  0  0  0  0  0  0
   -9.8054    2.8205    0.0000 C   0  0  0  0  0  0  0  0  0  0  0  0
   -8.6327    3.7558    0.0000 C   0  0  0  0  0  0  0  0  0  0  0  0
   -4.8917   -0.9352    0.0000 C   0  0  0  0  0  0  0  0  0  0  0  0
   -3.7190    0.0000    0.0000 C   0  0  0  0  0  0  0  0  0  0  0  0
   -4.8917    0.9352    0.0000 N   0  0  0  0  0  0  0  0  0  0  0  0
   -3.0682    1.3515    0.0000 C   0  0  0  0  0  0  0  0  0  0  0  0
   -1.6058    1.6852    0.0000 O   0  0  0  0  0  0  0  0  0  0  0  0
   -0.4330    0.7500    0.0000 C   0  0  0  0  0  0  0  0  0  0  0  0
    0.8660    0.0000    0.0000 C   0  0  0  0  0  0  0  0  0  0  0  0
    1.8302    1.1491    0.0000 F   0  0  0  0  0  0  0  0  0  0  0  0
   -0.4330   -0.7500    0.0000 N   0  0  0  0  0  0  0  0  0  0  0  0
   -1.6058   -1.6852    0.0000 O   0  0  0  0  0  0  0  0  0  0  0  0
   -3.0682   -1.3515    0.0000 C   0  0  0  0  0  0  0  0  0  0  0  0
   -4.1940   -4.2160    0.0000 H   0  0  0  0  0  0  0  0  0  0  0  0
   -6.3020   -3.9785    0.0000 H   0  0  0  0  0  0  0  0  0  0  0  0
   -3.9565   -2.1080    0.0000 H   0  0  0  0  0  0  0  0  0  0  0  0
   -7.2372   -2.8057    0.0000 H   0  0  0  0  0  0  0  0  0  0  0  0
   -7.6230   -1.1947    0.0000 H   0  0  0  0  0  0  0  0  0  0  0  0
   -7.4842   -1.3308    0.0000 H   0  0  0  0  0  0  0  0  0  0  0  0
   -6.6569    1.2603    0.0000 H   0  0  0  0  0  0  0  0  0  0  0  0
   -9.2497   -1.9535    0.0000 H   0  0  0  0  0  0  0  0  0  0  0  0
  -10.3101    1.5752    0.0000 H   0  0  0  0  0  0  0  0  0  0  0  0
  -11.0520   -1.3085    0.0000 H   0  0  0  0  0  0  0  0  0  0  0  0
  -12.4483   -0.7605    0.0000 H   0  0  0  0  0  0  0  0  0  0  0  0
  -11.7065    2.1232    0.0000 H   0  0  0  0  0  0  0  0  0  0  0  0
  -14.4694    0.2486    0.0000 H   0  0  0  0  0  0  0  0  0  0  0  0
   -6.5247    3.5182    0.0000 H   0  0  0  0  0  0  0  0  0  0  0  0
   -8.3211    3.9472    0.0000 H   0  0  0  0  0  0  0  0  0  0  0  0
   -6.6262    1.5330    0.0000 H   0  0  0  0  0  0  0  0  0  0  0  0
  -11.4071    0.0889    0.0000 H   0  0  0  0  0  0  0  0  0  0  0  0
   -9.4193   -0.6517    0.0000 H   0  0  0  0  0  0  0  0  0  0  0  0
  -11.9134    3.0580    0.0000 H   0  0  0  0  0  0  0  0  0  0  0  0
  -12.3424    1.2616    0.0000 H   0  0  0  0  0  0  0  0  0  0  0  0
  -10.7406    3.9933    0.0000 H   0  0  0  0  0  0  0  0  0  0  0  0
   -7.4599    4.6910    0.0000 H   0  0  0  0  0  0  0  0  0  0  0  0
   -9.5679    4.9285    0.0000 H   0  0  0  0  0  0  0  0  0  0  0  0
   -7.4414    2.8442    0.0000 H   0  0  0  0  0  0  0  0  0  0  0  0
   -3.9565   -2.1080    0.0000 H   0  0  0  0  0  0  0  0  0  0  0  0
   -5.9629    0.1148    0.0000 H   0  0  0  0  0  0  0  0  0  0  0  0
   -6.3444    0.5615    0.0000 H   0  0  0  0  0  0  0  0  0  0  0  0
   -4.8506    2.4347    0.0000 H   0  0  0  0  0  0  0  0  0  0  0  0
   -4.3137    2.1872    0.0000 H   0  0  0  0  0  0  0  0  0  0  0  0
   -3.0682    2.8515    0.0000 H   0  0  0  0  0  0  0  0  0  0  0  0
    0.4120    1.9894    0.0000 H   0  0  0  0  0  0  0  0  0  0  0  0
    1.8302   -1.1491    0.0000 H   0  0  0  0  0  0  0  0  0  0  0  0
   -3.0682   -2.8515    0.0000 H   0  0  0  0  0  0  0  0  0  0  0  0
   -4.5305   -1.6852    0.0000 H   0  0  0  0  0  0  0  0  0  0  0  0
  1  2  1  0
  2  3  1  0
  3  4  1  0
  4  5  1  0
  5  6  1  0
  6  7  1  0
  7  8  1  0
  4  9  1  0
  9 10  1  0
  9 11  1  0
 11 12  1  0
 12 13  1  0
 13 14  1  0
  2 15  1  0
 15 16  1  0
 16 17  1  0
 16 18  1  0
 18 19  1  0
 19 20  1  0
 20 21  1  0
 21 22  1  0
 21 23  1  0
 23 24  1  0
 24 25  1  0
 13  9  1  0
 25 16  1  0
 23 20  1  0
  1 26  1  0
  1 27  1  0
  1 28  1  0
  2 29  1  0
  3 30  1  0
  3 31  1  0
  4 32  1  0
  5 33  1  0
  6 34  1  0
  6 35  1  0
  7 36  1  0
  7 37  1  0
  8 38  1  0
 10 39  1  0
 10 40  1  0
 10 41  1  0
 11 42  1  0
 11 43  1  0
 12 44  1  0
 12 45  1  0
 13 46  1  0
 14 47  1  0
 14 48  1  0
 14 49  1  0
 15 50  1  0
 15 51  1  0
 17 52  1  0
 17 53  1  0
 18 54  1  0
 18 55  1  0
 20 56  1  0
 21 57  1  0
 25 58  1  0
 25 59  1  0
M  END
$$$$
