
     RDKit          2D

 22 26  0  0  0  0  0  0  0  0999 V2000
   -1.8596    1.2135    0.0000 C   0  0  0  0  0  0  0  0  0  0  0  0
   -0.4330    0.7500    0.0000 C   0  0  0  0  0  0  0  0  0  0  0  0
    0.8660    0.0000    0.0000 C   0  0  0  0  0  0  0  0  0  0  0  0
   -0.4330   -0.7500    0.0000 C   0  0  0  0  0  0  0  0  0  0  0  0
   -0.7449   -2.2172    0.0000 C   0  0  0  0  0  0  0  0  0  0  0  0
   -1.8596   -1.2135    0.0000 C   0  0  0  0  0  0  0  0  0  0  0  0
   -2.7413    0.0000    0.0000 C   0  0  0  0  0  0  0  0  0  0  0  0
   -3.3514   -1.3703    0.0000 C   0  0  0  0  0  0  0  0  0  0  0  0
   -3.9615   -2.7406    0.0000 C   0  0  0  0  0  0  0  0  0  0  0  0
   -4.8432   -1.5271    0.0000 C   0  0  0  0  0  0  0  0  0  0  0  0
   -1.2495    2.5838    0.0000 H   0  0  0  0  0  0  0  0  0  0  0  0
   -3.1586    1.9635    0.0000 H   0  0  0  0  0  0  0  0  0  0  0  0
    0.1771    2.1203    0.0000 H   0  0  0  0  0  0  0  0  0  0  0  0
    1.8302    1.1491    0.0000 H   0  0  0  0  0  0  0  0  0  0  0  0
    1.8302   -1.1491    0.0000 H   0  0  0  0  0  0  0  0  0  0  0  0
    0.6459   -2.7791    0.0000 H   0  0  0  0  0  0  0  0  0  0  0  0
   -1.5398   -3.4893    0.0000 H   0  0  0  0  0  0  0  0  0  0  0  0
   -4.0403    0.7500    0.0000 H   0  0  0  0  0  0  0  0  0  0  0  0
   -2.7179   -3.5794    0.0000 H   0  0  0  0  0  0  0  0  0  0  0  0
   -5.0035   -3.8196    0.0000 H   0  0  0  0  0  0  0  0  0  0  0  0
   -6.1914   -2.1847    0.0000 H   0  0  0  0  0  0  0  0  0  0  0  0
   -5.2566   -0.0852    0.0000 H   0  0  0  0  0  0  0  0  0  0  0  0
  1  2  1  0
  2  3  1  0
  3  4  1  0
  4  5  1  0
  5  6  1  0
  6  7  1  0
  7  8  1  0
  8  9  1  0
  9 10  1  0
  7  1  1  0
 10  8  1  0
  4  2  1  0
  8  6  1  0
  6  4  1  0
  1 11  1  0
  1 12  1  0
  2 13  1  0
  3 14  1  0
  3 15  1  0
  5 16  1  0
  5 17  1  0
  7 18  1  0
  9 19  1  0
  9 20  1  0
 10 21  1  0
 10 22  1  0
M  END
$$$$
