
     RDKit          2D

110118  0  0  0  0  0  0  0  0999 V2000
    4.2426   -5.3033    0.0000 C   0  0  0  0  0  0  0  0  0  0  0  0
    3.1820   -4.2426    0.0000 C   0  0  0  0  0  0  0  0  0  0  0  0
    2.1213   -3.1820    0.0000 C   0  0  0  0  0  0  0  0  0  0  0  0
    1.0607   -2.1213    0.0000 C   0  0  0  0  0  0  0  0  0  0  0  0
   -0.0000   -1.0607    0.0000 C   0  0  0  0  0  0  0  0  0  0  0  0
    1.0607    0.0000    0.0000 C   0  0  0  0  0  0  0  0  0  0  0  0
   -0.0000    1.0607    0.0000 C   0  0  0  0  0  0  0  0  0  0  0  0
   -1.0607    2.1213    0.0000 C   0  0  0  0  0  0  0  0  0  0  0  0
   -2.1213    3.1820    0.0000 C   0  0  0  0  0  0  0  0  0  0  0  0
   -3.1820    4.2426    0.0000 C   0  0  0  0  0  0  0  0  0  0  0  0
   -0.0000    3.1820    0.0000 N   0  0  0  0  0  0  0  0  0  0  0  0
   -0.3882    4.6309    0.0000 C   0  0  0  0  0  0  0  0  0  0  0  0
   -0.7765    6.0798    0.0000 C   0  0  0  0  0  0  0  0  0  0  0  0
   -1.8371    4.2426    0.0000 S   0  0  0  0  0  0  0  0  0  0  0  0
   -2.8978    5.3033    0.0000 S   0  0  0  0  0  0  0  0  0  0  0  0
   -1.0607   -0.0000    0.0000 C   0  0  0  0  0  0  0  0  0  0  0  0
   -2.1213   -1.0607    0.0000 S   0  0  0  0  0  5  0  0  0  0  0  0
   -3.1820   -2.1213    0.0000 S   0  0  0  0  0  0  0  0  0  0  0  0
    3.1820   -2.1213    0.0000 C   0  0  0  0  0  0  0  0  0  0  0  0
    4.4107   -2.9817    0.0000 C   0  0  0  0  0  0  0  0  0  0  0  0
    5.7702   -2.3478    0.0000 C   0  0  0  0  0  0  0  0  0  0  0  0
    6.6305   -3.5765    0.0000 C   0  0  0  0  0  0  0  0  0  0  0  0
    7.4909   -4.8052    0.0000 N   0  0  0  0  0  0  0  0  0  0  0  0
    7.6216   -6.2995    0.0000 C   0  0  0  0  0  0  0  0  0  0  0  0
    8.8504   -5.4391    0.0000 C   0  0  0  0  0  0  0  0  0  0  0  0
    9.9110   -6.4998    0.0000 C   0  0  0  0  0  0  0  0  0  0  0  0
   10.9717   -7.5605    0.0000 C   0  0  0  0  0  0  0  0  0  0  0  0
   12.0323   -8.6211    0.0000 C   0  0  0  0  0  0  0  0  0  0  0  0
   12.6663   -9.9806    0.0000 C   0  0  0  0  0  0  0  0  0  0  0  0
   11.1720   -9.8498    0.0000 C   0  0  0  0  0  0  0  0  0  0  0  0
   10.9717   -5.4391    0.0000 C   0  0  0  0  0  0  0  0  0  0  0  0
   12.0323   -4.3785    0.0000 C   0  0  0  0  0  0  0  0  0  0  0  0
   13.0930   -5.4391    0.0000 C   0  0  0  0  0  0  0  0  0  0  0  0
   14.1537   -4.3785    0.0000 C   0  0  0  0  0  0  0  0  0  0  0  0
   13.0930   -3.3178    0.0000 C   0  0  0  0  0  0  0  0  0  0  0  0
   12.0323   -2.2572    0.0000 C   0  0  0  0  0  0  0  0  0  0  0  0
   11.3984   -0.8977    0.0000 C   0  0  0  0  0  0  0  0  0  0  0  0
    9.9495   -1.2859    0.0000 C   0  0  0  0  0  0  0  0  0  0  0  0
   12.8927   -1.0284    0.0000 C   0  0  0  0  0  0  0  0  0  0  0  0
   13.2809    0.4205    0.0000 C   0  0  0  0  0  0  0  0  0  0  0  0
   14.7298    0.8087    0.0000 C   0  0  0  0  0  0  0  0  0  0  0  0
   13.6692    1.8693    0.0000 C   0  0  0  0  0  0  0  0  0  0  0  0
   12.2203    1.4811    0.0000 C   0  0  0  0  0  0  0  0  0  0  0  0
    4.5414   -1.4874    0.0000 C   0  0  0  0  0  0  0  0  0  0  0  0
    4.6722    0.0069    0.0000 C   0  0  0  0  0  0  0  0  0  0  0  0
    5.3033   -6.3640    0.0000 H   0  0  0  0  0  0  0  0  0  0  0  0
    3.1820   -6.3640    0.0000 H   0  0  0  0  0  0  0  0  0  0  0  0
    5.1661   -4.1213    0.0000 H   0  0  0  0  0  0  0  0  0  0  0  0
    2.1213   -5.3033    0.0000 H   0  0  0  0  0  0  0  0  0  0  0  0
    4.0256   -3.7358    0.0000 H   0  0  0  0  0  0  0  0  0  0  0  0
    1.0607   -4.2426    0.0000 H   0  0  0  0  0  0  0  0  0  0  0  0
    1.7566   -1.4254    0.0000 H   0  0  0  0  0  0  0  0  0  0  0  0
   -0.0000   -3.1820    0.0000 H   0  0  0  0  0  0  0  0  0  0  0  0
   -0.9235   -2.2427    0.0000 H   0  0  0  0  0  0  0  0  0  0  0  0
    2.1213    1.0607    0.0000 H   0  0  0  0  0  0  0  0  0  0  0  0
    1.9043   -0.5068    0.0000 H   0  0  0  0  0  0  0  0  0  0  0  0
    1.1820    1.9841    0.0000 H   0  0  0  0  0  0  0  0  0  0  0  0
   -2.2427    1.1979    0.0000 H   0  0  0  0  0  0  0  0  0  0  0  0
   -1.8883    3.9443    0.0000 H   0  0  0  0  0  0  0  0  0  0  0  0
   -3.1820    2.1213    0.0000 H   0  0  0  0  0  0  0  0  0  0  0  0
   -4.3640    5.1661    0.0000 H   0  0  0  0  0  0  0  0  0  0  0  0
   -4.2426    3.1820    0.0000 H   0  0  0  0  0  0  0  0  0  0  0  0
   -2.5720    5.6130    0.0000 H   0  0  0  0  0  0  0  0  0  0  0  0
    1.4854    2.9733    0.0000 H   0  0  0  0  0  0  0  0  0  0  0  0
    1.0607    5.0191    0.0000 H   0  0  0  0  0  0  0  0  0  0  0  0
   -1.1647    7.5286    0.0000 H   0  0  0  0  0  0  0  0  0  0  0  0
    0.6724    6.4680    0.0000 H   0  0  0  0  0  0  0  0  0  0  0  0
   -2.2682    6.2367    0.0000 H   0  0  0  0  0  0  0  0  0  0  0  0
   -4.3832    5.0946    0.0000 H   0  0  0  0  0  0  0  0  0  0  0  0
   -2.2427    0.9235    0.0000 H   0  0  0  0  0  0  0  0  0  0  0  0
   -3.1820   -0.0000    0.0000 H   0  0  0  0  0  0  0  0  0  0  0  0
   -1.1979   -2.2427    0.0000 H   0  0  0  0  0  0  0  0  0  0  0  0
    2.6445   -0.7209    0.0000 H   0  0  0  0  0  0  0  0  0  0  0  0
    4.2800   -4.4760    0.0000 H   0  0  0  0  0  0  0  0  0  0  0  0
    6.8308   -1.2871    0.0000 H   0  0  0  0  0  0  0  0  0  0  0  0
    5.3061   -4.2807    0.0000 H   0  0  0  0  0  0  0  0  0  0  0  0
    7.8593   -2.7161    0.0000 H   0  0  0  0  0  0  0  0  0  0  0  0
    6.1727   -6.6877    0.0000 H   0  0  0  0  0  0  0  0  0  0  0  0
    8.0851   -7.7261    0.0000 H   0  0  0  0  0  0  0  0  0  0  0  0
    9.5545   -4.1147    0.0000 H   0  0  0  0  0  0  0  0  0  0  0  0
    8.9876   -7.6818    0.0000 H   0  0  0  0  0  0  0  0  0  0  0  0
   12.1537   -6.6370    0.0000 H   0  0  0  0  0  0  0  0  0  0  0  0
    9.7896   -8.4839    0.0000 H   0  0  0  0  0  0  0  0  0  0  0  0
   13.2611   -7.7608    0.0000 H   0  0  0  0  0  0  0  0  0  0  0  0
   14.1152   -9.5924    0.0000 H   0  0  0  0  0  0  0  0  0  0  0  0
   12.7970  -11.4749    0.0000 H   0  0  0  0  0  0  0  0  0  0  0  0
   10.7837  -11.2987    0.0000 H   0  0  0  0  0  0  0  0  0  0  0  0
    9.7454   -9.3864    0.0000 H   0  0  0  0  0  0  0  0  0  0  0  0
   12.1537   -6.3626    0.0000 H   0  0  0  0  0  0  0  0  0  0  0  0
   10.0482   -4.2571    0.0000 H   0  0  0  0  0  0  0  0  0  0  0  0
   10.7465   -3.6060    0.0000 H   0  0  0  0  0  0  0  0  0  0  0  0
   14.1537   -6.4998    0.0000 H   0  0  0  0  0  0  0  0  0  0  0  0
   13.8655   -4.1533    0.0000 H   0  0  0  0  0  0  0  0  0  0  0  0
   15.2143   -3.3178    0.0000 H   0  0  0  0  0  0  0  0  0  0  0  0
   15.2143   -5.4391    0.0000 H   0  0  0  0  0  0  0  0  0  0  0  0
   14.2750   -2.3944    0.0000 H   0  0  0  0  0  0  0  0  0  0  0  0
   10.8036   -3.1175    0.0000 H   0  0  0  0  0  0  0  0  0  0  0  0
   11.0865    0.5695    0.0000 H   0  0  0  0  0  0  0  0  0  0  0  0
    8.5006   -1.6742    0.0000 H   0  0  0  0  0  0  0  0  0  0  0  0
    9.5613    0.1630    0.0000 H   0  0  0  0  0  0  0  0  0  0  0  0
    9.9756   -2.7857    0.0000 H   0  0  0  0  0  0  0  0  0  0  0  0
   14.3193   -1.4919    0.0000 H   0  0  0  0  0  0  0  0  0  0  0  0
   15.3638   -0.5508    0.0000 H   0  0  0  0  0  0  0  0  0  0  0  0
   15.9586    1.6690    0.0000 H   0  0  0  0  0  0  0  0  0  0  0  0
   14.0574    3.3182    0.0000 H   0  0  0  0  0  0  0  0  0  0  0  0
   11.5863    2.8406    0.0000 H   0  0  0  0  0  0  0  0  0  0  0  0
   10.8958    0.7769    0.0000 H   0  0  0  0  0  0  0  0  0  0  0  0
    4.8029    1.5012    0.0000 H   0  0  0  0  0  0  0  0  0  0  0  0
    6.1665   -0.1238    0.0000 H   0  0  0  0  0  0  0  0  0  0  0  0
    3.1779    0.1376    0.0000 H   0  0  0  0  0  0  0  0  0  0  0  0
  1  2  1  0
  2  3  1  0
  3  4  1  0
  4  5  1  0
  5  6  1  0
  6  7  1  0
  7  8  1  0
  8  9  1  0
  9 10  1  0
  8 11  1  0
 11 12  1  0
 12 13  1  0
 12 14  1  0
 14 15  1  0
  7 16  1  0
 16 17  1  0
 17 18  2  0
  3 19  1  0
 19 20  1  0
 20 21  1  0
 21 22  1  0
 22 23  1  0
 23 24  1  0
 24 25  1  0
 25 26  1  0
 26 27  1  0
 27 28  1  0
 28 29  1  0
 29 30  1  0
 26 31  1  0
 31 32  1  0
 32 33  1  0
 33 34  1  0
 34 35  1  0
 35 36  1  0
 36 37  1  0
 37 38  1  0
 37 39  1  0
 39 40  1  0
 40 41  1  0
 41 42  1  0
 42 43  1  0
 21 44  1  0
 44 45  1  0
 16  5  1  0
 44 19  1  0
 44 20  1  0
 25 23  1  0
 30 28  1  0
 35 32  1  0
 39 36  1  0
 42 40  1  0
 43 40  1  0
  1 46  1  0
  1 47  1  0
  1 48  1  0
  2 49  1  0
  2 50  1  0
  3 51  1  0
  4 52  1  0
  4 53  1  0
  5 54  1  0
  6 55  1  0
  6 56  1  0
  7 57  1  0
  8 58  1  0
  9 59  1  0
  9 60  1  0
 10 61  1  0
 10 62  1  0
 10 63  1  0
 11 64  1  0
 12 65  1  0
 13 66  1  0
 13 67  1  0
 13 68  1  0
 15 69  1  0
 16 70  1  0
 17 71  1  0
 17 72  1  0
 19 73  1  0
 20 74  1  0
 21 75  1  0
 22 76  1  0
 22 77  1  0
 24 78  1  0
 24 79  1  0
 25 80  1  0
 26 81  1  0
 27 82  1  0
 27 83  1  0
 28 84  1  0
 29 85  1  0
 29 86  1  0
 30 87  1  0
 30 88  1  0
 31 89  1  0
 31 90  1  0
 32 91  1  0
 33 92  1  0
 33 93  1  0
 34 94  1  0
 34 95  1  0
 35 96  1  0
 36 97  1  0
 37 98  1  0
 38 99  1  0
 38100  1  0
 38101  1  0
 39102  1  0
 41103  1  0
 41104  1  0
 42105  1  0
 43106  1  0
 43107  1  0
 45108  1  0
 45109  1  0
 45110  1  0
M  RAD  1  17   2
M  END
$$$$
