
     RDKit          2D

 40 42  0  0  0  0  0  0  0  0999 V2000
   -0.0385   -8.3959    0.0000 O   0  0  0  0  0  0  0  0  0  0  0  0
    1.0222   -7.3352    0.0000 C   0  0  0  0  0  0  0  0  0  0  0  0
    2.0828   -6.2745    0.0000 C   0  0  0  0  0  0  0  0  0  0  0  0
    3.1435   -5.2139    0.0000 C   0  0  0  0  0  0  0  0  0  0  0  0
    4.2041   -4.1532    0.0000 C   0  0  0  0  0  0  0  0  0  0  0  0
    3.1435   -3.0926    0.0000 O   0  0  0  0  0  0  0  0  0  0  0  0
    3.5317   -1.6437    0.0000 C   0  0  0  0  0  0  0  0  0  0  0  0
    3.4010   -0.1494    0.0000 C   0  0  0  0  0  0  0  0  0  0  0  0
    2.1722   -1.0097    0.0000 C   0  0  0  0  0  0  0  0  0  0  0  0
    1.1116    0.0509    0.0000 C   0  0  0  0  0  0  0  0  0  0  0  0
    0.0509   -1.0097    0.0000 C   0  0  0  0  0  0  0  0  0  0  0  0
   -1.0097    0.0509    0.0000 C   0  0  0  0  0  0  0  0  0  0  0  0
    0.0509    1.1116    0.0000 C   0  0  0  0  0  0  0  0  0  0  0  0
    5.2648   -3.0926    0.0000 C   0  0  0  0  0  0  0  0  0  0  0  0
    6.6243   -2.4586    0.0000 C   0  0  0  0  0  0  0  0  0  0  0  0
    6.4935   -3.9529    0.0000 C   0  0  0  0  0  0  0  0  0  0  0  0
    0.3497   -9.8447    0.0000 H   0  0  0  0  0  0  0  0  0  0  0  0
   -0.0385   -6.2745    0.0000 H   0  0  0  0  0  0  0  0  0  0  0  0
    2.0828   -8.3959    0.0000 H   0  0  0  0  0  0  0  0  0  0  0  0
    3.1435   -7.3352    0.0000 H   0  0  0  0  0  0  0  0  0  0  0  0
    1.0222   -5.2139    0.0000 H   0  0  0  0  0  0  0  0  0  0  0  0
    4.2041   -6.2745    0.0000 H   0  0  0  0  0  0  0  0  0  0  0  0
    2.0828   -4.1532    0.0000 H   0  0  0  0  0  0  0  0  0  0  0  0
    5.1276   -5.3353    0.0000 H   0  0  0  0  0  0  0  0  0  0  0  0
    4.3284   -1.6158    0.0000 H   0  0  0  0  0  0  0  0  0  0  0  0
    4.8499    0.2389    0.0000 H   0  0  0  0  0  0  0  0  0  0  0  0
    2.9838    1.1346    0.0000 H   0  0  0  0  0  0  0  0  0  0  0  0
    1.6589   -1.9753    0.0000 H   0  0  0  0  0  0  0  0  0  0  0  0
    1.9427    1.1148    0.0000 H   0  0  0  0  0  0  0  0  0  0  0  0
   -1.0097   -2.0704    0.0000 H   0  0  0  0  0  0  0  0  0  0  0  0
    0.7241   -1.8714    0.0000 H   0  0  0  0  0  0  0  0  0  0  0  0
   -2.0704    1.1116    0.0000 H   0  0  0  0  0  0  0  0  0  0  0  0
   -2.0704   -1.0097    0.0000 H   0  0  0  0  0  0  0  0  0  0  0  0
    1.1116    2.1722    0.0000 H   0  0  0  0  0  0  0  0  0  0  0  0
   -1.0097    2.1722    0.0000 H   0  0  0  0  0  0  0  0  0  0  0  0
    4.8906   -2.3887    0.0000 H   0  0  0  0  0  0  0  0  0  0  0  0
    6.2360   -1.0097    0.0000 H   0  0  0  0  0  0  0  0  0  0  0  0
    8.1186   -2.3279    0.0000 H   0  0  0  0  0  0  0  0  0  0  0  0
    7.9424   -4.3411    0.0000 H   0  0  0  0  0  0  0  0  0  0  0  0
    6.0300   -5.3795    0.0000 H   0  0  0  0  0  0  0  0  0  0  0  0
  1  2  1  0
  2  3  1  0
  3  4  1  0
  4  5  1  0
  5  6  1  0
  6  7  1  0
  7  8  1  0
  8  9  1  0
  9 10  1  0
 10 11  1  0
 11 12  1  0
 12 13  1  0
  5 14  1  0
 14 15  1  0
 15 16  1  0
  9  7  1  0
 13 10  1  0
 16 14  1  0
  1 17  1  0
  2 18  1  0
  2 19  1  0
  3 20  1  0
  3 21  1  0
  4 22  1  0
  4 23  1  0
  5 24  1  0
  7 25  1  0
  8 26  1  0
  8 27  1  0
  9 28  1  0
 10 29  1  0
 11 30  1  0
 11 31  1  0
 12 32  1  0
 12 33  1  0
 13 34  1  0
 13 35  1  0
 14 36  1  0
 15 37  1  0
 15 38  1  0
 16 39  1  0
 16 40  1  0
M  END
$$$$
