
     RDKit          2D

 35 36  0  0  0  0  0  0  0  0999 V2000
    1.4392   -6.0928    0.0000 C   0  0  0  0  0  0  0  0  0  0  0  0
    2.4215   -4.9592    0.0000 C   0  0  0  0  0  0  0  0  0  0  0  0
    2.6350   -3.4744    0.0000 C   0  0  0  0  0  0  0  0  0  0  0  0
    2.0119   -2.1100    0.0000 C   0  0  0  0  0  0  0  0  0  0  0  0
    0.7500   -1.2990    0.0000 C   0  0  0  0  0  0  0  0  0  0  0  0
    1.5000    0.0000    0.0000 C   0  0  0  0  0  0  0  0  0  0  0  0
    0.7500    1.2990    0.0000 C   0  0  0  0  0  0  0  0  0  0  0  0
   -0.7500    1.2990    0.0000 C   0  0  0  0  0  0  0  0  0  0  0  0
   -1.5000    0.0000    0.0000 C   0  0  0  0  0  0  0  0  0  0  0  0
   -0.7500   -1.2990    0.0000 C   0  0  0  0  0  0  0  0  0  0  0  0
   -2.0119   -2.1100    0.0000 C   0  0  0  0  0  0  0  0  0  0  0  0
   -2.6350   -3.4744    0.0000 C   0  0  0  0  0  0  0  0  0  0  0  0
   -2.4215   -4.9592    0.0000 C   0  0  0  0  0  0  0  0  0  0  0  0
   -1.4392   -6.0928    0.0000 C   0  0  0  0  0  0  0  0  0  0  0  0
   -0.0000   -6.5154    0.0000 C   0  0  0  0  0  0  0  0  0  0  0  0
    2.2502   -7.3547    0.0000 H   0  0  0  0  0  0  0  0  0  0  0  0
    3.7860   -5.5823    0.0000 H   0  0  0  0  0  0  0  0  0  0  0  0
    3.7183   -2.6689    0.0000 H   0  0  0  0  0  0  0  0  0  0  0  0
    3.9683   -4.1618    0.0000 H   0  0  0  0  0  0  0  0  0  0  0  0
    2.5406   -0.7063    0.0000 H   0  0  0  0  0  0  0  0  0  0  0  0
    3.3301   -1.8188    0.0000 H   0  0  0  0  0  0  0  0  0  0  0  0
    2.9888    0.1828    0.0000 H   0  0  0  0  0  0  0  0  0  0  0  0
    1.5000    2.5981    0.0000 H   0  0  0  0  0  0  0  0  0  0  0  0
   -1.5000    2.5981    0.0000 H   0  0  0  0  0  0  0  0  0  0  0  0
   -2.9888    0.1828    0.0000 H   0  0  0  0  0  0  0  0  0  0  0  0
   -3.3301   -1.8188    0.0000 H   0  0  0  0  0  0  0  0  0  0  0  0
   -2.5406   -0.7063    0.0000 H   0  0  0  0  0  0  0  0  0  0  0  0
   -3.9014   -3.9422    0.0000 H   0  0  0  0  0  0  0  0  0  0  0  0
   -3.7183   -2.6689    0.0000 H   0  0  0  0  0  0  0  0  0  0  0  0
   -3.2340   -6.0373    0.0000 H   0  0  0  0  0  0  0  0  0  0  0  0
   -3.7684   -4.8672    0.0000 H   0  0  0  0  0  0  0  0  0  0  0  0
   -1.5399   -7.4390    0.0000 H   0  0  0  0  0  0  0  0  0  0  0  0
   -2.6220   -6.7436    0.0000 H   0  0  0  0  0  0  0  0  0  0  0  0
    0.8701   -7.7373    0.0000 H   0  0  0  0  0  0  0  0  0  0  0  0
   -0.6432   -7.7023    0.0000 H   0  0  0  0  0  0  0  0  0  0  0  0
  1  2  2  0
  2  3  1  0
  3  4  1  0
  4  5  1  0
  5  6  2  0
  6  7  1  0
  7  8  2  0
  8  9  1  0
  9 10  2  0
 10 11  1  0
 11 12  1  0
 12 13  1  0
 13 14  1  0
 14 15  1  0
 15  1  1  0
 10  5  1  0
  1 16  1  0
  2 17  1  0
  3 18  1  0
  3 19  1  0
  4 20  1  0
  4 21  1  0
  6 22  1  0
  7 23  1  0
  8 24  1  0
  9 25  1  0
 11 26  1  0
 11 27  1  0
 12 28  1  0
 12 29  1  0
 13 30  1  0
 13 31  1  0
 14 32  1  0
 14 33  1  0
 15 34  1  0
 15 35  1  0
M  END
$$$$
