
     RDKit          2D

 46 48  0  0  0  0  0  0  0  0999 V2000
    0.9416    3.5905    0.0000 C   0  0  0  0  0  0  0  0  0  0  0  0
    0.6811    2.1132    0.0000 C   0  0  0  0  0  0  0  0  0  0  0  0
   -0.7284    1.6002    0.0000 C   0  0  0  0  0  0  0  0  0  0  0  0
   -2.1379    1.0872    0.0000 C   0  0  0  0  0  0  0  0  0  0  0  0
   -3.5475    0.5742    0.0000 C   0  0  0  0  0  0  0  0  0  0  0  0
   -5.0475    0.5742    0.0000 C   0  0  0  0  0  0  0  0  0  0  0  0
   -4.2975    1.8732    0.0000 C   0  0  0  0  0  0  0  0  0  0  0  0
    1.8302    1.1491    0.0000 C   0  0  0  0  0  0  0  0  0  0  0  0
    2.9793    0.1849    0.0000 C   0  0  0  0  0  0  0  0  0  0  0  0
    0.8660    0.0000    0.0000 C   0  0  0  0  0  0  0  0  0  0  0  0
    1.8302   -1.1491    0.0000 C   0  0  0  0  0  0  0  0  0  0  0  0
    2.5344   -2.4735    0.0000 C   0  0  0  0  0  0  0  0  0  0  0  0
    1.4924   -3.5525    0.0000 C   0  0  0  0  0  0  0  0  0  0  0  0
    0.1442   -2.8949    0.0000 C   0  0  0  0  0  0  0  0  0  0  0  0
   -0.3688   -4.3045    0.0000 C   0  0  0  0  0  0  0  0  0  0  0  0
   -0.8818   -5.7140    0.0000 C   0  0  0  0  0  0  0  0  0  0  0  0
   -1.3949   -7.1236    0.0000 O   0  0  0  0  0  0  0  0  0  0  0  0
    0.3530   -1.4095    0.0000 C   0  0  0  0  0  0  0  0  0  0  0  0
   -0.2075    4.5546    0.0000 H   0  0  0  0  0  0  0  0  0  0  0  0
    2.3512    4.1035    0.0000 H   0  0  0  0  0  0  0  0  0  0  0  0
   -1.2414    3.0098    0.0000 H   0  0  0  0  0  0  0  0  0  0  0  0
   -0.5491    0.8235    0.0000 H   0  0  0  0  0  0  0  0  0  0  0  0
   -2.4416    2.4026    0.0000 H   0  0  0  0  0  0  0  0  0  0  0  0
   -1.8006   -0.3744    0.0000 H   0  0  0  0  0  0  0  0  0  0  0  0
   -3.2870   -0.9031    0.0000 H   0  0  0  0  0  0  0  0  0  0  0  0
   -5.3079   -0.9031    0.0000 H   0  0  0  0  0  0  0  0  0  0  0  0
   -6.4570    1.0872    0.0000 H   0  0  0  0  0  0  0  0  0  0  0  0
   -5.4465    2.8374    0.0000 H   0  0  0  0  0  0  0  0  0  0  0  0
   -3.3768    2.8605    0.0000 H   0  0  0  0  0  0  0  0  0  0  0  0
    2.7944    2.2981    0.0000 H   0  0  0  0  0  0  0  0  0  0  0  0
    4.1283   -0.7793    0.0000 H   0  0  0  0  0  0  0  0  0  0  0  0
    3.9435    1.3340    0.0000 H   0  0  0  0  0  0  0  0  0  0  0  0
    2.5479   -0.6997    0.0000 H   0  0  0  0  0  0  0  0  0  0  0  0
    0.1322    0.3115    0.0000 H   0  0  0  0  0  0  0  0  0  0  0  0
    3.2398   -0.6361    0.0000 H   0  0  0  0  0  0  0  0  0  0  0  0
    3.7780   -1.6347    0.0000 H   0  0  0  0  0  0  0  0  0  0  0  0
    3.4986   -3.6226    0.0000 H   0  0  0  0  0  0  0  0  0  0  0  0
    2.6744   -4.4760    0.0000 H   0  0  0  0  0  0  0  0  0  0  0  0
    0.8585   -4.9120    0.0000 H   0  0  0  0  0  0  0  0  0  0  0  0
   -1.3112   -2.5321    0.0000 H   0  0  0  0  0  0  0  0  0  0  0  0
   -1.7783   -3.7914    0.0000 H   0  0  0  0  0  0  0  0  0  0  0  0
    0.9677   -4.9855    0.0000 H   0  0  0  0  0  0  0  0  0  0  0  0
    0.5277   -6.2270    0.0000 H   0  0  0  0  0  0  0  0  0  0  0  0
   -2.2914   -5.2010    0.0000 H   0  0  0  0  0  0  0  0  0  0  0  0
   -2.8721   -7.3840    0.0000 H   0  0  0  0  0  0  0  0  0  0  0  0
   -1.1358   -1.2268    0.0000 H   0  0  0  0  0  0  0  0  0  0  0  0
  1  2  2  3
  2  3  1  0
  3  4  1  0
  4  5  1  0
  5  6  1  0
  6  7  1  0
  2  8  1  0
  8  9  1  0
  8 10  1  0
 10 11  1  0
 11 12  1  0
 12 13  1  0
 13 14  1  0
 14 15  1  0
 15 16  1  0
 16 17  1  0
 14 18  1  0
  7  5  1  0
 18 10  1  0
 18 11  1  0
  1 19  1  0
  1 20  1  0
  3 21  1  0
  3 22  1  0
  4 23  1  0
  4 24  1  0
  5 25  1  0
  6 26  1  0
  6 27  1  0
  7 28  1  0
  7 29  1  0
  8 30  1  0
  9 31  1  0
  9 32  1  0
  9 33  1  0
 10 34  1  0
 11 35  1  0
 12 36  1  0
 12 37  1  0
 13 38  1  0
 13 39  1  0
 14 40  1  0
 15 41  1  0
 15 42  1  0
 16 43  1  0
 16 44  1  0
 17 45  1  0
 18 46  1  0
M  END
$$$$
