
     RDKit          2D

106112  0  0  0  0  0  0  0  0999 V2000
  -11.4089    4.9312    0.0000 C   0  0  0  0  0  0  0  0  0  0  0  0
  -10.0495    5.5652    0.0000 C   0  0  0  0  0  0  0  0  0  0  0  0
   -8.6900    6.1991    0.0000 C   0  0  0  0  0  0  0  0  0  0  0  0
   -7.3305    6.8330    0.0000 C   0  0  0  0  0  0  0  0  0  0  0  0
   -5.9711    7.4669    0.0000 C   0  0  0  0  0  0  0  0  0  0  0  0
   -4.6116    8.1009    0.0000 C   0  0  0  0  0  0  0  0  0  0  0  0
   -3.2522    8.7348    0.0000 C   0  0  0  0  0  0  0  0  0  0  0  0
   -3.8861   10.0943    0.0000 C   0  0  0  0  0  0  0  0  0  0  0  0
   -2.6182    7.3753    0.0000 C   0  0  0  0  0  0  0  0  0  0  0  0
   -3.9777    6.7414    0.0000 C   0  0  0  0  0  0  0  0  0  0  0  0
   -3.3438    5.3819    0.0000 C   0  0  0  0  0  0  0  0  0  0  0  0
   -1.8949    5.7702    0.0000 C   0  0  0  0  0  0  0  0  0  0  0  0
   -0.8342    4.7095    0.0000 C   0  0  0  0  0  0  0  0  0  0  0  0
    0.3945    5.5699    0.0000 C   0  0  0  0  0  0  0  0  0  0  0  0
    1.2549    4.3411    0.0000 C   0  0  0  0  0  0  0  0  0  0  0  0
    2.1152    3.1124    0.0000 C   0  0  0  0  0  0  0  0  0  0  0  0
    3.3440    3.9728    0.0000 O   0  0  0  0  0  0  0  0  0  0  0  0
    2.9756    1.8837    0.0000 C   0  0  0  0  0  0  0  0  0  0  0  0
    3.8360    0.6550    0.0000 C   0  0  0  0  0  0  0  0  0  0  0  0
    4.6963   -0.5738    0.0000 Al  0  0  0  0  0  3  0  0  0  0  0  0
    6.1906   -0.4430    0.0000 Br  0  0  0  0  0  0  0  0  0  0  0  0
   -0.4659    6.7986    0.0000 C   0  0  0  0  0  0  0  0  0  0  0  0
    0.7629    7.6590    0.0000 C   0  0  0  0  0  0  0  0  0  0  0  0
    1.9916    8.5193    0.0000 C   0  0  0  0  0  0  0  0  0  0  0  0
    1.1312    9.7481    0.0000 C   0  0  0  0  0  0  0  0  0  0  0  0
    2.3600   10.6084    0.0000 C   0  0  0  0  0  0  0  0  0  0  0  0
    3.5887   11.4688    0.0000 C   0  0  0  0  0  0  0  0  0  0  0  0
    4.8174   12.3292    0.0000 C   0  0  0  0  0  0  0  0  0  0  0  0
    6.1419   13.0333    0.0000 Cl  0  0  0  0  0  0  0  0  0  0  0  0
    2.7283   12.6975    0.0000 C   0  0  0  0  0  0  0  0  0  0  0  0
    1.8680   13.9262    0.0000 C   0  0  0  0  0  0  0  0  0  0  0  0
    0.6392   14.7866    0.0000 C   0  0  0  0  0  0  0  0  0  0  0  0
    0.5085   13.2923    0.0000 C   0  0  0  0  0  0  0  0  0  0  0  0
    3.9571   13.5579    0.0000 C   0  0  0  0  0  0  0  0  0  0  0  0
    4.8174   14.7866    0.0000 C   0  0  0  0  0  0  0  0  0  0  0  0
    6.1769   14.1527    0.0000 C   0  0  0  0  0  0  0  0  0  0  0  0
    3.3231   14.9173    0.0000 C   0  0  0  0  0  0  0  0  0  0  0  0
    3.1924   16.4116    0.0000 C   0  0  0  0  0  0  0  0  0  0  0  0
    3.2203    9.3797    0.0000 C   0  0  0  0  0  0  0  0  0  0  0  0
    1.6232    6.4302    0.0000 C   0  0  0  0  0  0  0  0  0  0  0  0
   -2.2831    4.3213    0.0000 C   0  0  0  0  0  0  0  0  0  0  0  0
   -2.6713    2.8724    0.0000 N   0  0  0  0  0  0  0  0  0  0  0  0
   -1.6107    1.8117    0.0000 N   0  0  0  0  0  0  0  0  0  0  0  0
  -12.7684    4.2973    0.0000 H   0  0  0  0  0  0  0  0  0  0  0  0
  -12.0429    6.2907    0.0000 H   0  0  0  0  0  0  0  0  0  0  0  0
  -10.7750    3.5718    0.0000 H   0  0  0  0  0  0  0  0  0  0  0  0
   -9.4155    4.2057    0.0000 H   0  0  0  0  0  0  0  0  0  0  0  0
  -10.6834    6.9246    0.0000 H   0  0  0  0  0  0  0  0  0  0  0  0
   -8.0561    4.8396    0.0000 H   0  0  0  0  0  0  0  0  0  0  0  0
   -9.3239    7.5585    0.0000 H   0  0  0  0  0  0  0  0  0  0  0  0
   -6.6966    5.4735    0.0000 H   0  0  0  0  0  0  0  0  0  0  0  0
   -7.9645    8.1925    0.0000 H   0  0  0  0  0  0  0  0  0  0  0  0
   -5.6974    6.6245    0.0000 H   0  0  0  0  0  0  0  0  0  0  0  0
   -6.6050    8.8264    0.0000 H   0  0  0  0  0  0  0  0  0  0  0  0
   -5.0810    8.8520    0.0000 H   0  0  0  0  0  0  0  0  0  0  0  0
   -1.8927    9.3687    0.0000 H   0  0  0  0  0  0  0  0  0  0  0  0
   -4.5200   11.4537    0.0000 H   0  0  0  0  0  0  0  0  0  0  0  0
   -2.5266   10.7282    0.0000 H   0  0  0  0  0  0  0  0  0  0  0  0
   -4.7285    9.8206    0.0000 H   0  0  0  0  0  0  0  0  0  0  0  0
   -1.4526    8.3194    0.0000 H   0  0  0  0  0  0  0  0  0  0  0  0
   -2.1488    6.6242    0.0000 H   0  0  0  0  0  0  0  0  0  0  0  0
   -4.7288    6.2720    0.0000 H   0  0  0  0  0  0  0  0  0  0  0  0
   -4.5725    4.5216    0.0000 H   0  0  0  0  0  0  0  0  0  0  0  0
   -1.5067    7.2191    0.0000 H   0  0  0  0  0  0  0  0  0  0  0  0
   -0.3707    3.2829    0.0000 H   0  0  0  0  0  0  0  0  0  0  0  0
    2.5793    5.0453    0.0000 H   0  0  0  0  0  0  0  0  0  0  0  0
    0.1402    3.3374    0.0000 H   0  0  0  0  0  0  0  0  0  0  0  0
    0.8865    2.2521    0.0000 H   0  0  0  0  0  0  0  0  0  0  0  0
    4.7706    3.5093    0.0000 H   0  0  0  0  0  0  0  0  0  0  0  0
    4.3000    2.5879    0.0000 H   0  0  0  0  0  0  0  0  0  0  0  0
    1.7469    1.0233    0.0000 H   0  0  0  0  0  0  0  0  0  0  0  0
    2.6072   -0.2054    0.0000 H   0  0  0  0  0  0  0  0  0  0  0  0
    5.0647    1.5153    0.0000 H   0  0  0  0  0  0  0  0  0  0  0  0
    4.0624   -1.9332    0.0000 H   0  0  0  0  0  0  0  0  0  0  0  0
   -1.0033    8.1990    0.0000 H   0  0  0  0  0  0  0  0  0  0  0  0
   -1.7903    6.0944    0.0000 H   0  0  0  0  0  0  0  0  0  0  0  0
   -0.2409    8.7737    0.0000 H   0  0  0  0  0  0  0  0  0  0  0  0
    0.8595    9.5034    0.0000 H   0  0  0  0  0  0  0  0  0  0  0  0
    0.2709   10.9768    0.0000 H   0  0  0  0  0  0  0  0  0  0  0  0
   -0.1932    9.0439    0.0000 H   0  0  0  0  0  0  0  0  0  0  0  0
    1.2278   11.5925    0.0000 H   0  0  0  0  0  0  0  0  0  0  0  0
    4.5924   10.3541    0.0000 H   0  0  0  0  0  0  0  0  0  0  0  0
    5.6778   11.1004    0.0000 H   0  0  0  0  0  0  0  0  0  0  0  0
    4.2799   13.7296    0.0000 H   0  0  0  0  0  0  0  0  0  0  0  0
    1.4996   11.8372    0.0000 H   0  0  0  0  0  0  0  0  0  0  0  0
    2.6404   15.2120    0.0000 H   0  0  0  0  0  0  0  0  0  0  0  0
    1.1027   16.2132    0.0000 H   0  0  0  0  0  0  0  0  0  0  0  0
   -0.8097   15.1748    0.0000 H   0  0  0  0  0  0  0  0  0  0  0  0
   -0.9858   13.1616    0.0000 H   0  0  0  0  0  0  0  0  0  0  0  0
    0.5346   11.7925    0.0000 H   0  0  0  0  0  0  0  0  0  0  0  0
    5.1391   12.6344    0.0000 H   0  0  0  0  0  0  0  0  0  0  0  0
    5.3794   16.1774    0.0000 H   0  0  0  0  0  0  0  0  0  0  0  0
    7.5363   13.5188    0.0000 H   0  0  0  0  0  0  0  0  0  0  0  0
    6.8108   15.5121    0.0000 H   0  0  0  0  0  0  0  0  0  0  0  0
    5.8907   12.6802    0.0000 H   0  0  0  0  0  0  0  0  0  0  0  0
    1.8234   14.8912    0.0000 H   0  0  0  0  0  0  0  0  0  0  0  0
    3.0617   17.9059    0.0000 H   0  0  0  0  0  0  0  0  0  0  0  0
    4.6596   16.7235    0.0000 H   0  0  0  0  0  0  0  0  0  0  0  0
    1.6933   16.4640    0.0000 H   0  0  0  0  0  0  0  0  0  0  0  0
    4.0807    8.1510    0.0000 H   0  0  0  0  0  0  0  0  0  0  0  0
    4.5448   10.0839    0.0000 H   0  0  0  0  0  0  0  0  0  0  0  0
    2.6270    5.3155    0.0000 H   0  0  0  0  0  0  0  0  0  0  0  0
    2.8520    7.2906    0.0000 H   0  0  0  0  0  0  0  0  0  0  0  0
   -4.1202    2.4842    0.0000 H   0  0  0  0  0  0  0  0  0  0  0  0
   -1.9989    0.3628    0.0000 H   0  0  0  0  0  0  0  0  0  0  0  0
   -0.1618    2.2000    0.0000 H   0  0  0  0  0  0  0  0  0  0  0  0
  1  2  1  0
  2  3  1  0
  3  4  1  0
  4  5  1  0
  5  6  1  0
  6  7  1  0
  7  8  1  0
  7  9  1  0
  9 10  1  0
 10 11  1  0
 11 12  1  0
 12 13  1  0
 13 14  1  0
 14 15  1  0
 15 16  1  0
 16 17  1  0
 16 18  1  0
 18 19  1  0
 19 20  1  0
 20 21  1  0
 14 22  1  0
 22 23  1  0
 23 24  1  0
 24 25  1  0
 25 26  1  0
 26 27  1  0
 27 28  1  0
 28 29  1  0
 27 30  1  0
 30 31  1  0
 31 32  1  0
 32 33  1  0
 30 34  1  0
 34 35  1  0
 35 36  1  0
 35 37  1  0
 37 38  1  0
 26 39  1  0
 23 40  1  0
 13 41  1  0
 41 42  1  0
 42 43  1  0
 10  6  1  0
 41 11  1  0
 41 12  1  0
 40 14  1  0
 39 24  1  0
 33 31  1  0
 37 34  1  0
  1 44  1  0
  1 45  1  0
  1 46  1  0
  2 47  1  0
  2 48  1  0
  3 49  1  0
  3 50  1  0
  4 51  1  0
  4 52  1  0
  5 53  1  0
  5 54  1  0
  6 55  1  0
  7 56  1  0
  8 57  1  0
  8 58  1  0
  8 59  1  0
  9 60  1  0
  9 61  1  0
 10 62  1  0
 11 63  1  0
 12 64  1  0
 13 65  1  0
 15 66  1  0
 15 67  1  0
 16 68  1  0
 17 69  1  0
 18 70  1  0
 18 71  1  0
 19 72  1  0
 19 73  1  0
 20 74  1  0
 22 75  1  0
 22 76  1  0
 23 77  1  0
 24 78  1  0
 25 79  1  0
 25 80  1  0
 26 81  1  0
 27 82  1  0
 28 83  1  0
 28 84  1  0
 30 85  1  0
 31 86  1  0
 32 87  1  0
 32 88  1  0
 33 89  1  0
 33 90  1  0
 34 91  1  0
 35 92  1  0
 36 93  1  0
 36 94  1  0
 36 95  1  0
 37 96  1  0
 38 97  1  0
 38 98  1  0
 38 99  1  0
 39100  1  0
 39101  1  0
 40102  1  0
 40103  1  0
 42104  1  0
 43105  1  0
 43106  1  0
M  END
$$$$
