
     RDKit          2D

 81 82  0  0  0  0  0  0  0  0999 V2000
    5.4414  -14.6051    0.0000 C   0  0  0  0  0  0  0  0  0  0  0  0
    3.9641  -14.8656    0.0000 C   0  0  0  0  0  0  0  0  0  0  0  0
    2.4869  -15.1260    0.0000 C   0  0  0  0  0  0  0  0  0  0  0  0
    1.9739  -13.7165    0.0000 C   0  0  0  0  0  0  0  0  0  0  0  0
    1.0097  -12.5674    0.0000 C   0  0  0  0  0  0  0  0  0  0  0  0
    0.0455  -11.4184    0.0000 C   0  0  0  0  0  0  0  0  0  0  0  0
   -0.9186  -10.2693    0.0000 C   0  0  0  0  0  0  0  0  0  0  0  0
   -2.3959  -10.5298    0.0000 O   0  0  0  0  0  0  0  0  0  0  0  0
   -0.4056   -8.8598    0.0000 C   0  0  0  0  0  0  0  0  0  0  0  0
    0.1074   -7.4502    0.0000 C   0  0  0  0  0  0  0  0  0  0  0  0
    0.6204   -6.0407    0.0000 C   0  0  0  0  0  0  0  0  0  0  0  0
    1.1335   -4.6311    0.0000 C   0  0  0  0  0  0  0  0  0  0  0  0
    1.6465   -3.2216    0.0000 C   0  0  0  0  0  0  0  0  0  0  0  0
    2.1595   -1.8121    0.0000 C   0  0  0  0  0  0  0  0  0  0  0  0
    2.6726   -0.4025    0.0000 C   0  0  0  0  0  0  0  0  0  0  0  0
    4.1498   -0.1421    0.0000 O   0  0  0  0  0  0  0  0  0  0  0  0
    0.7500   -1.2990    0.0000 C   0  0  0  0  0  0  0  0  0  0  0  0
    1.5000    0.0000    0.0000 C   0  0  0  0  0  0  0  0  0  0  0  0
    0.7500    1.2990    0.0000 C   0  0  0  0  0  0  0  0  0  0  0  0
   -0.7500    1.2990    0.0000 C   0  0  0  0  0  0  0  0  0  0  0  0
   -2.1595    1.8121    0.0000 O   0  0  0  0  0  0  0  0  0  0  0  0
   -1.5000    0.0000    0.0000 N   0  0  0  0  0  0  0  0  0  0  0  0
   -0.7500   -1.2990    0.0000 C   0  0  0  0  0  0  0  0  0  0  0  0
    1.0097  -14.8656    0.0000 C   0  0  0  0  0  0  0  0  0  0  0  0
    0.4967  -16.2751    0.0000 C   0  0  0  0  0  0  0  0  0  0  0  0
   -0.0163  -17.6846    0.0000 C   0  0  0  0  0  0  0  0  0  0  0  0
   -0.5294  -19.0942    0.0000 C   0  0  0  0  0  0  0  0  0  0  0  0
   -1.4259  -17.1716    0.0000 C   0  0  0  0  0  0  0  0  0  0  0  0
   -2.8354  -16.6586    0.0000 C   0  0  0  0  0  0  0  0  0  0  0  0
   -4.2450  -16.1456    0.0000 N   0  0  0  0  0  0  0  0  0  0  0  0
   -4.5054  -14.6683    0.0000 C   0  0  0  0  0  0  0  0  0  0  0  0
   -4.7659  -13.1911    0.0000 N   0  0  0  0  0  0  0  0  0  0  0  0
    6.9186  -14.3446    0.0000 H   0  0  0  0  0  0  0  0  0  0  0  0
    5.7018  -16.0823    0.0000 H   0  0  0  0  0  0  0  0  0  0  0  0
    5.1809  -13.1279    0.0000 H   0  0  0  0  0  0  0  0  0  0  0  0
    3.8935  -13.5174    0.0000 H   0  0  0  0  0  0  0  0  0  0  0  0
    4.2246  -16.3428    0.0000 H   0  0  0  0  0  0  0  0  0  0  0  0
    2.6698  -16.6149    0.0000 H   0  0  0  0  0  0  0  0  0  0  0  0
    3.0520  -12.9040    0.0000 H   0  0  0  0  0  0  0  0  0  0  0  0
   -0.2483  -13.3844    0.0000 H   0  0  0  0  0  0  0  0  0  0  0  0
    2.1588  -11.6033    0.0000 H   0  0  0  0  0  0  0  0  0  0  0  0
   -1.1035  -12.3825    0.0000 H   0  0  0  0  0  0  0  0  0  0  0  0
    1.1946  -10.4542    0.0000 H   0  0  0  0  0  0  0  0  0  0  0  0
    1.0039   -9.3728    0.0000 H   0  0  0  0  0  0  0  0  0  0  0  0
   -1.8152   -8.3467    0.0000 H   0  0  0  0  0  0  0  0  0  0  0  0
   -1.3021   -6.9372    0.0000 H   0  0  0  0  0  0  0  0  0  0  0  0
    1.5170   -7.9633    0.0000 H   0  0  0  0  0  0  0  0  0  0  0  0
    2.0300   -6.5537    0.0000 H   0  0  0  0  0  0  0  0  0  0  0  0
   -0.7891   -5.5277    0.0000 H   0  0  0  0  0  0  0  0  0  0  0  0
   -0.2761   -4.1181    0.0000 H   0  0  0  0  0  0  0  0  0  0  0  0
    2.5430   -5.1442    0.0000 H   0  0  0  0  0  0  0  0  0  0  0  0
    0.7656   -3.1291    0.0000 H   0  0  0  0  0  0  0  0  0  0  0  0
    3.0560   -3.7346    0.0000 H   0  0  0  0  0  0  0  0  0  0  0  0
    3.5691   -2.3251    0.0000 H   0  0  0  0  0  0  0  0  0  0  0  0
    2.3232    0.3140    0.0000 H   0  0  0  0  0  0  0  0  0  0  0  0
    0.4910   -2.1461    0.0000 H   0  0  0  0  0  0  0  0  0  0  0  0
    2.1107    0.5124    0.0000 H   0  0  0  0  0  0  0  0  0  0  0  0
    2.8482   -0.6575    0.0000 H   0  0  0  0  0  0  0  0  0  0  0  0
    0.4895    2.7762    0.0000 H   0  0  0  0  0  0  0  0  0  0  0  0
    2.1595    1.8121    0.0000 H   0  0  0  0  0  0  0  0  0  0  0  0
   -0.4895    2.7762    0.0000 H   0  0  0  0  0  0  0  0  0  0  0  0
   -2.4200    3.2893    0.0000 H   0  0  0  0  0  0  0  0  0  0  0  0
   -3.0000    0.0000    0.0000 H   0  0  0  0  0  0  0  0  0  0  0  0
   -0.6715   -2.7970    0.0000 H   0  0  0  0  0  0  0  0  0  0  0  0
   -2.1595   -1.8121    0.0000 H   0  0  0  0  0  0  0  0  0  0  0  0
   -0.3711  -14.2795    0.0000 H   0  0  0  0  0  0  0  0  0  0  0  0
   -0.8398  -15.5941    0.0000 H   0  0  0  0  0  0  0  0  0  0  0  0
    1.8332  -16.9561    0.0000 H   0  0  0  0  0  0  0  0  0  0  0  0
    1.3932  -18.1977    0.0000 H   0  0  0  0  0  0  0  0  0  0  0  0
   -1.0424  -20.5037    0.0000 H   0  0  0  0  0  0  0  0  0  0  0  0
    0.8802  -19.6072    0.0000 H   0  0  0  0  0  0  0  0  0  0  0  0
   -1.9909  -18.7568    0.0000 H   0  0  0  0  0  0  0  0  0  0  0  0
   -2.1069  -18.5081    0.0000 H   0  0  0  0  0  0  0  0  0  0  0  0
   -1.0885  -15.7101    0.0000 H   0  0  0  0  0  0  0  0  0  0  0  0
   -3.3484  -18.0681    0.0000 H   0  0  0  0  0  0  0  0  0  0  0  0
   -2.3224  -15.2490    0.0000 H   0  0  0  0  0  0  0  0  0  0  0  0
   -5.3940  -17.1097    0.0000 H   0  0  0  0  0  0  0  0  0  0  0  0
   -5.9826  -14.9288    0.0000 H   0  0  0  0  0  0  0  0  0  0  0  0
   -3.0282  -14.4079    0.0000 H   0  0  0  0  0  0  0  0  0  0  0  0
   -3.6168  -12.2270    0.0000 H   0  0  0  0  0  0  0  0  0  0  0  0
   -6.1754  -12.6781    0.0000 H   0  0  0  0  0  0  0  0  0  0  0  0
  1  2  1  0
  2  3  1  0
  3  4  1  0
  4  5  1  0
  5  6  1  0
  6  7  1  0
  7  8  2  0
  7  9  1  0
  9 10  1  0
 10 11  1  0
 11 12  1  0
 12 13  1  0
 13 14  1  0
 14 15  1  0
 15 16  2  0
 14 17  1  0
 17 18  1  0
 18 19  1  0
 19 20  1  0
 20 21  1  0
 20 22  1  0
 22 23  1  0
  4 24  1  0
 24 25  1  0
 25 26  1  0
 26 27  1  0
 26 28  1  0
 28 29  1  0
 29 30  1  0
 30 31  1  0
 31 32  1  0
 24  3  1  0
 23 17  1  0
  1 33  1  0
  1 34  1  0
  1 35  1  0
  2 36  1  0
  2 37  1  0
  3 38  1  0
  4 39  1  0
  5 40  1  0
  5 41  1  0
  6 42  1  0
  6 43  1  0
  9 44  1  0
  9 45  1  0
 10 46  1  0
 10 47  1  0
 11 48  1  0
 11 49  1  0
 12 50  1  0
 12 51  1  0
 13 52  1  0
 13 53  1  0
 14 54  1  0
 15 55  1  0
 17 56  1  0
 18 57  1  0
 18 58  1  0
 19 59  1  0
 19 60  1  0
 20 61  1  0
 21 62  1  0
 22 63  1  0
 23 64  1  0
 23 65  1  0
 24 66  1  0
 25 67  1  0
 25 68  1  0
 26 69  1  0
 27 70  1  0
 27 71  1  0
 27 72  1  0
 28 73  1  0
 28 74  1  0
 29 75  1  0
 29 76  1  0
 30 77  1  0
 31 78  1  0
 31 79  1  0
 32 80  1  0
 32 81  1  0
M  END
$$$$
