
     RDKit          2D

 55 59  0  0  0  0  0  0  0  0999 V2000
    5.3308    4.4518    0.0000 C   0  0  0  0  0  0  0  0  0  0  0  0
    5.6646    2.9894    0.0000 C   0  0  0  0  0  0  0  0  0  0  0  0
    7.1270    2.6556    0.0000 C   0  0  0  0  0  0  0  0  0  0  0  0
    7.7778    1.3041    0.0000 C   0  0  0  0  0  0  0  0  0  0  0  0
    7.1270   -0.0473    0.0000 C   0  0  0  0  0  0  0  0  0  0  0  0
    7.1270   -1.5473    0.0000 C   0  0  0  0  0  0  0  0  0  0  0  0
    8.6042   -1.8078    0.0000 C   0  0  0  0  0  0  0  0  0  0  0  0
    9.1172   -3.2173    0.0000 C   0  0  0  0  0  0  0  0  0  0  0  0
    7.6400   -2.9568    0.0000 C   0  0  0  0  0  0  0  0  0  0  0  0
    5.6646   -0.3811    0.0000 C   0  0  0  0  0  0  0  0  0  0  0  0
    4.4918    0.5541    0.0000 C   0  0  0  0  0  0  0  0  0  0  0  0
    3.8410   -0.7973    0.0000 C   0  0  0  0  0  0  0  0  0  0  0  0
    3.0294    0.8879    0.0000 C   0  0  0  0  0  0  0  0  0  0  0  0
    1.8567    1.8232    0.0000 C   0  0  0  0  0  0  0  0  0  0  0  0
    0.3943    1.2135    0.0000 C   0  0  0  0  0  0  0  0  0  0  0  0
    1.2760    0.0000    0.0000 C   0  0  0  0  0  0  0  0  0  0  0  0
    0.3943   -1.2135    0.0000 C   0  0  0  0  0  0  0  0  0  0  0  0
    1.8567   -1.5473    0.0000 C   0  0  0  0  0  0  0  0  0  0  0  0
    3.0294   -0.6121    0.0000 O   0  0  0  0  0  0  0  0  0  0  0  0
   -1.0323   -0.7500    0.0000 N   0  0  0  0  0  0  0  0  0  0  0  0
   -1.0323    0.7500    0.0000 C   0  0  0  0  0  0  0  0  0  0  0  0
   -2.5241    0.5932    0.0000 N   0  0  0  0  0  0  0  0  0  0  0  0
    4.4918    2.0541    0.0000 C   0  0  0  0  0  0  0  0  0  0  0  0
    6.4304    5.4720    0.0000 H   0  0  0  0  0  0  0  0  0  0  0  0
    3.8974    4.8939    0.0000 H   0  0  0  0  0  0  0  0  0  0  0  0
    8.5378    3.1652    0.0000 H   0  0  0  0  0  0  0  0  0  0  0  0
    7.1270    4.1556    0.0000 H   0  0  0  0  0  0  0  0  0  0  0  0
    9.0558    0.5188    0.0000 H   0  0  0  0  0  0  0  0  0  0  0  0
    9.0558    2.0895    0.0000 H   0  0  0  0  0  0  0  0  0  0  0  0
    8.5378   -0.5569    0.0000 H   0  0  0  0  0  0  0  0  0  0  0  0
    6.3987   -1.8716    0.0000 H   0  0  0  0  0  0  0  0  0  0  0  0
    9.5684   -0.6587    0.0000 H   0  0  0  0  0  0  0  0  0  0  0  0
   10.5944   -2.9568    0.0000 H   0  0  0  0  0  0  0  0  0  0  0  0
    9.1172   -4.7173    0.0000 H   0  0  0  0  0  0  0  0  0  0  0  0
    6.6758   -4.1059    0.0000 H   0  0  0  0  0  0  0  0  0  0  0  0
    4.6146   -1.4523    0.0000 H   0  0  0  0  0  0  0  0  0  0  0  0
    5.9203   -1.1361    0.0000 H   0  0  0  0  0  0  0  0  0  0  0  0
    3.3598   -2.2180    0.0000 H   0  0  0  0  0  0  0  0  0  0  0  0
    4.9948   -1.7558    0.0000 H   0  0  0  0  0  0  0  0  0  0  0  0
    2.4203   -0.3161    0.0000 H   0  0  0  0  0  0  0  0  0  0  0  0
    3.6803    2.2394    0.0000 H   0  0  0  0  0  0  0  0  0  0  0  0
    2.9067    2.8944    0.0000 H   0  0  0  0  0  0  0  0  0  0  0  0
    1.3755    3.2439    0.0000 H   0  0  0  0  0  0  0  0  0  0  0  0
    0.6805    2.6860    0.0000 H   0  0  0  0  0  0  0  0  0  0  0  0
    2.6004    0.7041    0.0000 H   0  0  0  0  0  0  0  0  0  0  0  0
    2.7648   -0.1826    0.0000 H   0  0  0  0  0  0  0  0  0  0  0  0
    0.6805   -2.6860    0.0000 H   0  0  0  0  0  0  0  0  0  0  0  0
    1.3755   -2.9680    0.0000 H   0  0  0  0  0  0  0  0  0  0  0  0
    2.9067   -2.6185    0.0000 H   0  0  0  0  0  0  0  0  0  0  0  0
   -2.2458   -1.6317    0.0000 H   0  0  0  0  0  0  0  0  0  0  0  0
   -1.3442    2.2172    0.0000 H   0  0  0  0  0  0  0  0  0  0  0  0
   -3.4057    1.8067    0.0000 H   0  0  0  0  0  0  0  0  0  0  0  0
   -3.1342   -0.7771    0.0000 H   0  0  0  0  0  0  0  0  0  0  0  0
    3.8410    3.4056    0.0000 H   0  0  0  0  0  0  0  0  0  0  0  0
    2.9997    1.9011    0.0000 H   0  0  0  0  0  0  0  0  0  0  0  0
  1  2  2  3
  2  3  1  0
  3  4  1  0
  4  5  1  0
  5  6  1  0
  6  7  1  0
  7  8  1  0
  8  9  1  0
  5 10  1  0
 10 11  1  0
 11 12  1  0
 11 13  1  0
 13 14  1  0
 14 15  1  0
 15 16  1  0
 16 17  1  0
 17 18  1  0
 18 19  1  0
 17 20  1  0
 20 21  1  0
 21 22  1  0
 11 23  1  0
 23  2  1  0
  9  6  1  0
 19 13  1  0
  9  7  1  0
 21 15  1  0
  1 24  1  0
  1 25  1  0
  3 26  1  0
  3 27  1  0
  4 28  1  0
  4 29  1  0
  5 30  1  0
  6 31  1  0
  7 32  1  0
  8 33  1  0
  8 34  1  0
  9 35  1  0
 10 36  1  0
 10 37  1  0
 12 38  1  0
 12 39  1  0
 12 40  1  0
 13 41  1  0
 14 42  1  0
 14 43  1  0
 15 44  1  0
 16 45  1  0
 16 46  1  0
 17 47  1  0
 18 48  1  0
 18 49  1  0
 20 50  1  0
 21 51  1  0
 22 52  1  0
 22 53  1  0
 23 54  1  0
 23 55  1  0
M  END
$$$$
