
     RDKit          2D

 25 26  0  0  0  0  0  0  0  0999 V2000
   -0.4330    2.2500    0.0000 C   0  0  0  0  0  0  0  0  0  0  0  0
   -0.4330    0.7500    0.0000 C   0  0  0  0  0  0  0  0  0  0  0  0
    0.8660    0.0000    0.0000 C   0  0  0  0  0  0  0  0  0  0  0  0
   -0.4330   -0.7500    0.0000 C   0  0  0  0  0  0  0  0  0  0  0  0
   -1.7321    0.0000    0.0000 C   0  0  0  0  0  0  0  0  0  0  0  0
   -2.6962   -1.1491    0.0000 C   0  0  0  0  0  0  0  0  0  0  0  0
   -3.6604   -2.2981    0.0000 C   0  0  0  0  0  0  0  0  0  0  0  0
   -4.6246   -3.4472    0.0000 C   0  0  0  0  0  0  0  0  0  0  0  0
   -5.5888   -4.5963    0.0000 C   0  0  0  0  0  0  0  0  0  0  0  0
   -7.0660   -4.3358    0.0000 O   0  0  0  0  0  0  0  0  0  0  0  0
   -5.0757   -6.0058    0.0000 O   0  0  0  0  0  0  0  0  0  0  0  0
   -0.4330    3.7500    0.0000 H   0  0  0  0  0  0  0  0  0  0  0  0
    1.0670    2.2500    0.0000 H   0  0  0  0  0  0  0  0  0  0  0  0
   -1.9330    2.2500    0.0000 H   0  0  0  0  0  0  0  0  0  0  0  0
    1.8302    1.1491    0.0000 H   0  0  0  0  0  0  0  0  0  0  0  0
    1.8302   -1.1491    0.0000 H   0  0  0  0  0  0  0  0  0  0  0  0
   -0.4330   -2.2500    0.0000 H   0  0  0  0  0  0  0  0  0  0  0  0
   -2.6962    1.1491    0.0000 H   0  0  0  0  0  0  0  0  0  0  0  0
   -3.8453   -0.1849    0.0000 H   0  0  0  0  0  0  0  0  0  0  0  0
   -1.5472   -2.1132    0.0000 H   0  0  0  0  0  0  0  0  0  0  0  0
   -4.8095   -1.3340    0.0000 H   0  0  0  0  0  0  0  0  0  0  0  0
   -2.5113   -3.2623    0.0000 H   0  0  0  0  0  0  0  0  0  0  0  0
   -5.7737   -2.4830    0.0000 H   0  0  0  0  0  0  0  0  0  0  0  0
   -3.4755   -4.4114    0.0000 H   0  0  0  0  0  0  0  0  0  0  0  0
   -6.0399   -7.1549    0.0000 H   0  0  0  0  0  0  0  0  0  0  0  0
  2  1  1  6
  2  3  1  0
  3  4  1  0
  4  5  1  0
  5  6  1  0
  6  7  1  0
  7  8  1  0
  8  9  1  0
  9 10  2  0
  9 11  1  0
  4  2  1  0
  5  2  1  0
  1 12  1  0
  1 13  1  0
  1 14  1  0
  3 15  1  0
  3 16  1  0
  4 17  1  1
  5 18  1  1
  6 19  1  0
  6 20  1  0
  7 21  1  0
  7 22  1  0
  8 23  1  0
  8 24  1  0
 11 25  1  0
M  END
$$$$
