
     RDKit          2D

 87 93  0  0  0  0  0  0  0  0999 V2000
    3.3170    0.5490    0.0000 C   0  0  0  0  0  0  0  0  0  0  0  0
    2.5670   -0.7500    0.0000 C   0  0  0  0  0  0  0  0  0  0  0  0
    3.3170   -2.0490    0.0000 C   0  0  0  0  0  0  0  0  0  0  0  0
    4.0670   -3.3481    0.0000 N   0  0  0  0  0  0  0  0  0  0  0  0
    1.0670   -0.7500    0.0000 C   0  0  0  0  0  0  0  0  0  0  0  0
   -0.4330   -0.7500    0.0000 C   0  0  0  0  0  0  0  0  0  0  0  0
   -1.9330   -0.7500    0.0000 C   0  0  0  0  0  0  0  0  0  0  0  0
   -1.9330    0.7500    0.0000 C   0  0  0  0  0  0  0  0  0  0  0  0
   -1.9330    2.2500    0.0000 C   0  0  0  0  0  0  0  0  0  0  0  0
   -3.2321    3.0000    0.0000 C   0  0  0  0  0  0  0  0  0  0  0  0
   -4.5311    2.2500    0.0000 C   0  0  0  0  0  0  0  0  0  0  0  0
   -6.0083    1.9895    0.0000 C   0  0  0  0  0  0  0  0  0  0  0  0
   -5.4953    3.3991    0.0000 C   0  0  0  0  0  0  0  0  0  0  0  0
   -4.5311    4.5481    0.0000 C   0  0  0  0  0  0  0  0  0  0  0  0
   -3.5669    5.6972    0.0000 C   0  0  0  0  0  0  0  0  0  0  0  0
   -4.5311    6.8463    0.0000 C   0  0  0  0  0  0  0  0  0  0  0  0
   -4.0181    8.2558    0.0000 N   0  0  0  0  0  0  0  0  0  0  0  0
   -3.0539    7.1067    0.0000 C   0  0  0  0  0  0  0  0  0  0  0  0
   -1.5767    7.3672    0.0000 C   0  0  0  0  0  0  0  0  0  0  0  0
   -0.0995    7.6277    0.0000 C   0  0  0  0  0  0  0  0  0  0  0  0
   -0.3599    9.1049    0.0000 C   0  0  0  0  0  0  0  0  0  0  0  0
    1.1173    9.3654    0.0000 C   0  0  0  0  0  0  0  0  0  0  0  0
    0.8568   10.8426    0.0000 C   0  0  0  0  0  0  0  0  0  0  0  0
    0.5963   12.3198    0.0000 C   0  0  0  0  0  0  0  0  0  0  0  0
    2.0736   12.5803    0.0000 C   0  0  0  0  0  0  0  0  0  0  0  0
    1.8131   14.0575    0.0000 C   0  0  0  0  0  0  0  0  0  0  0  0
    0.3359   13.7970    0.0000 C   0  0  0  0  0  0  0  0  0  0  0  0
    0.0754   15.2742    0.0000 C   0  0  0  0  0  0  0  0  0  0  0  0
    1.3778    7.8882    0.0000 C   0  0  0  0  0  0  0  0  0  0  0  0
   -3.4330    0.7500    0.0000 C   0  0  0  0  0  0  0  0  0  0  0  0
   -4.7321    0.0000    0.0000 C   0  0  0  0  0  0  0  0  0  0  0  0
   -5.6962   -1.1491    0.0000 C   0  0  0  0  0  0  0  0  0  0  0  0
   -5.1832   -2.5586    0.0000 N   0  0  0  0  0  0  0  0  0  0  0  0
   -7.1734   -0.8886    0.0000 C   0  0  0  0  0  0  0  0  0  0  0  0
   -8.6507   -0.6281    0.0000 C   0  0  0  0  0  0  0  0  0  0  0  0
   -3.4330   -0.7500    0.0000 C   0  0  0  0  0  0  0  0  0  0  0  0
    4.8170    0.5490    0.0000 H   0  0  0  0  0  0  0  0  0  0  0  0
    2.5670    1.8481    0.0000 H   0  0  0  0  0  0  0  0  0  0  0  0
    2.0179   -2.7990    0.0000 H   0  0  0  0  0  0  0  0  0  0  0  0
    4.6160   -1.2990    0.0000 H   0  0  0  0  0  0  0  0  0  0  0  0
    3.3170   -4.6471    0.0000 H   0  0  0  0  0  0  0  0  0  0  0  0
    5.5670   -3.3481    0.0000 H   0  0  0  0  0  0  0  0  0  0  0  0
    1.0670    0.7500    0.0000 H   0  0  0  0  0  0  0  0  0  0  0  0
    1.0670   -2.2500    0.0000 H   0  0  0  0  0  0  0  0  0  0  0  0
   -0.3250    0.1291    0.0000 H   0  0  0  0  0  0  0  0  0  0  0  0
   -0.4330   -2.2500    0.0000 H   0  0  0  0  0  0  0  0  0  0  0  0
   -1.9330   -2.2500    0.0000 H   0  0  0  0  0  0  0  0  0  0  0  0
   -1.0539    0.8580    0.0000 H   0  0  0  0  0  0  0  0  0  0  0  0
   -0.6340    3.0000    0.0000 H   0  0  0  0  0  0  0  0  0  0  0  0
   -3.2321    3.7972    0.0000 H   0  0  0  0  0  0  0  0  0  0  0  0
   -4.3744    0.7582    0.0000 H   0  0  0  0  0  0  0  0  0  0  0  0
   -6.1911    0.5007    0.0000 H   0  0  0  0  0  0  0  0  0  0  0  0
   -7.4855    2.2500    0.0000 H   0  0  0  0  0  0  0  0  0  0  0  0
   -6.7943    4.1491    0.0000 H   0  0  0  0  0  0  0  0  0  0  0  0
   -3.8146    4.1987    0.0000 H   0  0  0  0  0  0  0  0  0  0  0  0
   -5.6802    5.5123    0.0000 H   0  0  0  0  0  0  0  0  0  0  0  0
   -2.2679    4.9472    0.0000 H   0  0  0  0  0  0  0  0  0  0  0  0
   -6.0083    6.5858    0.0000 H   0  0  0  0  0  0  0  0  0  0  0  0
   -4.2785    9.7330    0.0000 H   0  0  0  0  0  0  0  0  0  0  0  0
   -2.0153    8.8017    0.0000 H   0  0  0  0  0  0  0  0  0  0  0  0
   -1.3162    5.8900    0.0000 H   0  0  0  0  0  0  0  0  0  0  0  0
    0.1610    6.1505    0.0000 H   0  0  0  0  0  0  0  0  0  0  0  0
   -0.7985   10.5393    0.0000 H   0  0  0  0  0  0  0  0  0  0  0  0
   -1.8579    9.0264    0.0000 H   0  0  0  0  0  0  0  0  0  0  0  0
    2.5945    9.6258    0.0000 H   0  0  0  0  0  0  0  0  0  0  0  0
   -0.6411   10.7641    0.0000 H   0  0  0  0  0  0  0  0  0  0  0  0
    2.3548   10.9210    0.0000 H   0  0  0  0  0  0  0  0  0  0  0  0
   -0.8809   12.0593    0.0000 H   0  0  0  0  0  0  0  0  0  0  0  0
    3.5508   12.8407    0.0000 H   0  0  0  0  0  0  0  0  0  0  0  0
    2.5121   11.1458    0.0000 H   0  0  0  0  0  0  0  0  0  0  0  0
    1.7346   15.5554    0.0000 H   0  0  0  0  0  0  0  0  0  0  0  0
    3.2903   14.3179    0.0000 H   0  0  0  0  0  0  0  0  0  0  0  0
   -1.1413   13.5365    0.0000 H   0  0  0  0  0  0  0  0  0  0  0  0
   -1.4018   15.0137    0.0000 H   0  0  0  0  0  0  0  0  0  0  0  0
    1.5098   15.7128    0.0000 H   0  0  0  0  0  0  0  0  0  0  0  0
   -0.1851   16.7514    0.0000 H   0  0  0  0  0  0  0  0  0  0  0  0
    1.6382    6.4109    0.0000 H   0  0  0  0  0  0  0  0  0  0  0  0
    2.8550    8.1486    0.0000 H   0  0  0  0  0  0  0  0  0  0  0  0
   -4.1603    2.0619    0.0000 H   0  0  0  0  0  0  0  0  0  0  0  0
   -5.8291    1.0230    0.0000 H   0  0  0  0  0  0  0  0  0  0  0  0
   -6.1474   -3.7077    0.0000 H   0  0  0  0  0  0  0  0  0  0  0  0
   -7.4339   -2.3658    0.0000 H   0  0  0  0  0  0  0  0  0  0  0  0
   -6.9130    0.5886    0.0000 H   0  0  0  0  0  0  0  0  0  0  0  0
   -8.3902    0.8491    0.0000 H   0  0  0  0  0  0  0  0  0  0  0  0
   -8.9111   -2.1053    0.0000 H   0  0  0  0  0  0  0  0  0  0  0  0
  -10.1279   -0.3676    0.0000 H   0  0  0  0  0  0  0  0  0  0  0  0
   -3.8212   -2.1989    0.0000 H   0  0  0  0  0  0  0  0  0  0  0  0
  1  2  2  0
  2  3  1  0
  3  4  1  0
  2  5  1  0
  5  6  1  0
  6  7  1  0
  7  8  1  0
  8  9  1  0
  9 10  2  3
 10 11  1  0
 11 12  1  0
 12 13  1  0
 13 14  1  0
 14 15  1  0
 15 16  1  0
 16 17  1  0
 17 18  1  0
 18 19  1  1
 19 20  1  0
 20 21  1  0
 21 22  1  0
 22 23  1  0
 23 24  1  0
 24 25  1  0
 25 26  1  0
 26 27  1  0
 27 28  1  0
 22 29  1  0
  8 30  1  0
 30 31  1  0
 31 32  1  0
 32 33  2  3
 32 34  1  0
 34 35  1  0
 31 36  1  0
 36  7  1  0
 13 11  1  0
 18 15  1  0
 29 20  1  0
 36 30  1  0
 18 16  1  0
 27 24  1  0
  1 37  1  0
  1 38  1  0
  3 39  1  0
  3 40  1  0
  4 41  1  0
  4 42  1  0
  5 43  1  0
  5 44  1  0
  6 45  1  0
  6 46  1  0
  7 47  1  1
  8 48  1  1
  9 49  1  0
 10 50  1  0
 11 51  1  1
 12 52  1  0
 12 53  1  0
 13 54  1  1
 14 55  1  0
 14 56  1  0
 15 57  1  6
 16 58  1  1
 17 59  1  0
 19 60  1  0
 19 61  1  0
 20 62  1  6
 21 63  1  0
 21 64  1  0
 22 65  1  6
 23 66  1  0
 23 67  1  0
 24 68  1  1
 25 69  1  0
 25 70  1  0
 26 71  1  0
 26 72  1  0
 27 73  1  6
 28 74  1  0
 28 75  1  0
 28 76  1  0
 29 77  1  0
 29 78  1  0
 30 79  1  1
 31 80  1  1
 33 81  1  0
 34 82  1  0
 34 83  1  0
 35 84  1  0
 35 85  1  0
 35 86  1  0
 36 87  1  1
M  END
$$$$
