
     RDKit          2D

 65 66  0  0  0  0  0  0  0  0999 V2000
    1.5788   -3.9951    0.0000 C   0  0  0  0  0  0  0  0  0  0  0  0
    3.0560   -3.7346    0.0000 C   0  0  0  0  0  0  0  0  0  0  0  0
    3.5691   -2.3251    0.0000 C   0  0  0  0  0  0  0  0  0  0  0  0
    2.1595   -1.8121    0.0000 C   0  0  0  0  0  0  0  0  0  0  0  0
    0.7500   -1.2990    0.0000 C   0  0  0  0  0  0  0  0  0  0  0  0
    1.5000    0.0000    0.0000 C   0  0  0  0  0  0  0  0  0  0  0  0
    2.6491    0.9642    0.0000 C   0  0  0  0  0  0  0  0  0  0  0  0
    0.7500    1.2990    0.0000 C   0  0  0  0  0  0  0  0  0  0  0  0
   -0.7500    1.2990    0.0000 C   0  0  0  0  0  0  0  0  0  0  0  0
   -1.5000    0.0000    0.0000 C   0  0  0  0  0  0  0  0  0  0  0  0
   -0.7500   -1.2990    0.0000 C   0  0  0  0  0  0  0  0  0  0  0  0
   -0.4895   -2.7762    0.0000 C   0  0  0  0  0  0  0  0  0  0  0  0
   -0.2291   -4.2535    0.0000 C   0  0  0  0  0  0  0  0  0  0  0  0
    0.0314   -5.7307    0.0000 O   0  0  0  0  0  0  0  0  0  0  0  0
   -1.1176   -6.6949    0.0000 C   0  0  0  0  0  0  0  0  0  0  0  0
    4.0821   -0.9156    0.0000 C   0  0  0  0  0  0  0  0  0  0  0  0
    3.4246    0.4327    0.0000 O   0  0  0  0  0  0  0  0  0  0  0  0
    5.5593   -0.6551    0.0000 C   0  0  0  0  0  0  0  0  0  0  0  0
    7.0365   -0.3946    0.0000 C   0  0  0  0  0  0  0  0  0  0  0  0
    8.5137   -0.1341    0.0000 C   0  0  0  0  0  0  0  0  0  0  0  0
    7.2970   -1.8718    0.0000 O   0  0  0  0  0  0  0  0  0  0  0  0
    4.0202   -4.8837    0.0000 C   0  0  0  0  0  0  0  0  0  0  0  0
    4.5333   -6.2932    0.0000 C   0  0  0  0  0  0  0  0  0  0  0  0
    3.0560   -6.0328    0.0000 C   0  0  0  0  0  0  0  0  0  0  0  0
    2.5430   -7.4423    0.0000 C   0  0  0  0  0  0  0  0  0  0  0  0
    2.0300   -8.8518    0.0000 C   0  0  0  0  0  0  0  0  0  0  0  0
    0.5528   -9.1123    0.0000 O   0  0  0  0  0  0  0  0  0  0  0  0
    0.8978   -5.3316    0.0000 H   0  0  0  0  0  0  0  0  0  0  0  0
    1.0664   -3.3844    0.0000 H   0  0  0  0  0  0  0  0  0  0  0  0
    4.9786   -2.8381    0.0000 H   0  0  0  0  0  0  0  0  0  0  0  0
    2.6726   -0.4025    0.0000 H   0  0  0  0  0  0  0  0  0  0  0  0
    1.7127   -2.6889    0.0000 H   0  0  0  0  0  0  0  0  0  0  0  0
    0.5390   -2.4956    0.0000 H   0  0  0  0  0  0  0  0  0  0  0  0
    2.7580   -0.8169    0.0000 H   0  0  0  0  0  0  0  0  0  0  0  0
    3.7981    1.9284    0.0000 H   0  0  0  0  0  0  0  0  0  0  0  0
    3.7461   -0.0588    0.0000 H   0  0  0  0  0  0  0  0  0  0  0  0
    1.8321    2.2222    0.0000 H   0  0  0  0  0  0  0  0  0  0  0  0
    0.4895    2.7762    0.0000 H   0  0  0  0  0  0  0  0  0  0  0  0
    2.0865    1.9801    0.0000 H   0  0  0  0  0  0  0  0  0  0  0  0
   -2.1595    1.8121    0.0000 H   0  0  0  0  0  0  0  0  0  0  0  0
   -0.4895    2.7762    0.0000 H   0  0  0  0  0  0  0  0  0  0  0  0
   -2.6491   -0.9642    0.0000 H   0  0  0  0  0  0  0  0  0  0  0  0
   -2.6491    0.9642    0.0000 H   0  0  0  0  0  0  0  0  0  0  0  0
   -2.1595   -1.8121    0.0000 H   0  0  0  0  0  0  0  0  0  0  0  0
   -1.9667   -3.0367    0.0000 H   0  0  0  0  0  0  0  0  0  0  0  0
    0.9877   -2.5158    0.0000 H   0  0  0  0  0  0  0  0  0  0  0  0
   -1.7063   -4.5139    0.0000 H   0  0  0  0  0  0  0  0  0  0  0  0
    1.2054   -3.8149    0.0000 H   0  0  0  0  0  0  0  0  0  0  0  0
   -2.2667   -7.6590    0.0000 H   0  0  0  0  0  0  0  0  0  0  0  0
   -0.1535   -7.8439    0.0000 H   0  0  0  0  0  0  0  0  0  0  0  0
   -2.0818   -5.5458    0.0000 H   0  0  0  0  0  0  0  0  0  0  0  0
    5.2988    0.8221    0.0000 H   0  0  0  0  0  0  0  0  0  0  0  0
    5.8198   -2.1323    0.0000 H   0  0  0  0  0  0  0  0  0  0  0  0
    6.7761    1.0826    0.0000 H   0  0  0  0  0  0  0  0  0  0  0  0
    9.9910    0.1263    0.0000 H   0  0  0  0  0  0  0  0  0  0  0  0
    8.2533    1.3431    0.0000 H   0  0  0  0  0  0  0  0  0  0  0  0
    8.9523   -1.5686    0.0000 H   0  0  0  0  0  0  0  0  0  0  0  0
    8.6335   -2.5528    0.0000 H   0  0  0  0  0  0  0  0  0  0  0  0
    5.3193   -4.1337    0.0000 H   0  0  0  0  0  0  0  0  0  0  0  0
    6.0105   -6.0328    0.0000 H   0  0  0  0  0  0  0  0  0  0  0  0
    4.7161   -7.7821    0.0000 H   0  0  0  0  0  0  0  0  0  0  0  0
    1.6753   -5.4467    0.0000 H   0  0  0  0  0  0  0  0  0  0  0  0
    3.8795   -8.1233    0.0000 H   0  0  0  0  0  0  0  0  0  0  0  0
    1.1335   -6.9293    0.0000 H   0  0  0  0  0  0  0  0  0  0  0  0
    2.9942  -10.0009    0.0000 H   0  0  0  0  0  0  0  0  0  0  0  0
  1  2  2  3
  2  3  1  0
  3  4  1  0
  4  5  1  0
  5  6  1  0
  6  7  1  0
  6  8  1  0
  8  9  1  0
  9 10  1  0
 10 11  1  0
 11 12  1  0
 12 13  1  0
 13 14  1  0
 14 15  1  0
  3 16  1  0
 16 17  2  0
 16 18  1  0
 18 19  1  0
 19 20  1  0
 19 21  1  0
  2 22  1  0
 22 23  1  0
 23 24  1  0
 24 25  1  0
 25 26  1  0
 26 27  2  0
 11  5  1  0
 24 22  1  0
  1 28  1  0
  1 29  1  0
  3 30  1  0
  4 31  1  0
  4 32  1  0
  5 33  1  0
  6 34  1  0
  7 35  1  0
  7 36  1  0
  7 37  1  0
  8 38  1  0
  8 39  1  0
  9 40  1  0
  9 41  1  0
 10 42  1  0
 10 43  1  0
 11 44  1  0
 12 45  1  0
 12 46  1  0
 13 47  1  0
 13 48  1  0
 15 49  1  0
 15 50  1  0
 15 51  1  0
 18 52  1  0
 18 53  1  0
 19 54  1  0
 20 55  1  0
 20 56  1  0
 20 57  1  0
 21 58  1  0
 22 59  1  0
 23 60  1  0
 23 61  1  0
 24 62  1  0
 25 63  1  0
 25 64  1  0
 26 65  1  0
M  END
$$$$
