
     RDKit          2D

 75 76  0  0  0  0  0  0  0  0999 V2000
    3.6929    0.0000    0.0000 C   0  0  0  0  0  0  0  0  0  0  0  0
    2.1929    0.0000    0.0000 C   0  0  0  0  0  0  0  0  0  0  0  0
    1.6798    1.4095    0.0000 C   0  0  0  0  0  0  0  0  0  0  0  0
    0.3808    2.1595    0.0000 C   0  0  0  0  0  0  0  0  0  0  0  0
   -1.0964    1.8991    0.0000 C   0  0  0  0  0  0  0  0  0  0  0  0
   -2.0606    0.7500    0.0000 C   0  0  0  0  0  0  0  0  0  0  0  0
   -2.0606   -0.7500    0.0000 C   0  0  0  0  0  0  0  0  0  0  0  0
   -2.8849   -2.0032    0.0000 C   0  0  0  0  0  0  0  0  0  0  0  0
   -3.7091   -3.2565    0.0000 C   0  0  0  0  0  0  0  0  0  0  0  0
   -1.0964   -1.8991    0.0000 C   0  0  0  0  0  0  0  0  0  0  0  0
   -0.9223   -3.3889    0.0000 C   0  0  0  0  0  0  0  0  0  0  0  0
   -0.7481   -4.8788    0.0000 C   0  0  0  0  0  0  0  0  0  0  0  0
   -0.5740   -6.3686    0.0000 C   0  0  0  0  0  0  0  0  0  0  0  0
   -2.0639   -6.5428    0.0000 O   0  0  0  0  0  0  0  0  0  0  0  0
   -2.6580   -7.9201    0.0000 O   0  0  0  0  0  0  0  0  0  0  0  0
   -4.1478   -8.0942    0.0000 Al  0  0  0  0  0  3  0  0  0  0  0  0
   -4.7420   -9.4716    0.0000 C   0  0  0  0  0  0  0  0  0  0  0  0
   -5.3361  -10.8489    0.0000 C   0  0  0  0  0  0  0  0  0  0  0  0
   -5.9302  -12.2262    0.0000 C   0  0  0  0  0  0  0  0  0  0  0  0
   -6.9596  -13.3173    0.0000 C   0  0  0  0  0  0  0  0  0  0  0  0
   -7.3898  -11.8803    0.0000 C   0  0  0  0  0  0  0  0  0  0  0  0
   -0.3999   -7.8585    0.0000 C   0  0  0  0  0  0  0  0  0  0  0  0
   -0.2257   -9.3484    0.0000 C   0  0  0  0  0  0  0  0  0  0  0  0
    1.0900   -7.6844    0.0000 C   0  0  0  0  0  0  0  0  0  0  0  0
    2.5798   -7.5102    0.0000 C   0  0  0  0  0  0  0  0  0  0  0  0
    4.0697   -7.3361    0.0000 C   0  0  0  0  0  0  0  0  0  0  0  0
    0.3808   -2.1595    0.0000 C   0  0  0  0  0  0  0  0  0  0  0  0
    1.6798   -1.4095    0.0000 C   0  0  0  0  0  0  0  0  0  0  0  0
    4.4429   -1.2990    0.0000 H   0  0  0  0  0  0  0  0  0  0  0  0
    4.4429    1.2990    0.0000 H   0  0  0  0  0  0  0  0  0  0  0  0
    2.2011    2.8161    0.0000 H   0  0  0  0  0  0  0  0  0  0  0  0
    3.1773    1.4968    0.0000 H   0  0  0  0  0  0  0  0  0  0  0  0
   -0.1240    3.5721    0.0000 H   0  0  0  0  0  0  0  0  0  0  0  0
    1.3382    3.3142    0.0000 H   0  0  0  0  0  0  0  0  0  0  0  0
   -2.3911    2.6566    0.0000 H   0  0  0  0  0  0  0  0  0  0  0  0
   -1.1052    3.3990    0.0000 H   0  0  0  0  0  0  0  0  0  0  0  0
   -3.5393    0.4982    0.0000 H   0  0  0  0  0  0  0  0  0  0  0  0
   -3.0315    1.8934    0.0000 H   0  0  0  0  0  0  0  0  0  0  0  0
   -3.3914   -0.5233    0.0000 H   0  0  0  0  0  0  0  0  0  0  0  0
   -4.0128   -1.2614    0.0000 H   0  0  0  0  0  0  0  0  0  0  0  0
   -2.2772   -2.5192    0.0000 H   0  0  0  0  0  0  0  0  0  0  0  0
   -4.5334   -4.5097    0.0000 H   0  0  0  0  0  0  0  0  0  0  0  0
   -4.9624   -2.4322    0.0000 H   0  0  0  0  0  0  0  0  0  0  0  0
   -2.5657   -4.2273    0.0000 H   0  0  0  0  0  0  0  0  0  0  0  0
   -1.6666   -2.4562    0.0000 H   0  0  0  0  0  0  0  0  0  0  0  0
   -2.3798   -3.7434    0.0000 H   0  0  0  0  0  0  0  0  0  0  0  0
    0.5654   -3.5805    0.0000 H   0  0  0  0  0  0  0  0  0  0  0  0
    0.7417   -4.7046    0.0000 H   0  0  0  0  0  0  0  0  0  0  0  0
   -2.2380   -5.0529    0.0000 H   0  0  0  0  0  0  0  0  0  0  0  0
    0.8835   -6.0142    0.0000 H   0  0  0  0  0  0  0  0  0  0  0  0
   -5.0436   -6.8911    0.0000 H   0  0  0  0  0  0  0  0  0  0  0  0
   -3.3646  -10.0657    0.0000 H   0  0  0  0  0  0  0  0  0  0  0  0
   -6.1193   -8.8774    0.0000 H   0  0  0  0  0  0  0  0  0  0  0  0
   -3.9588  -11.4430    0.0000 H   0  0  0  0  0  0  0  0  0  0  0  0
   -6.6307  -10.0913    0.0000 H   0  0  0  0  0  0  0  0  0  0  0  0
   -4.6770  -13.0505    0.0000 H   0  0  0  0  0  0  0  0  0  0  0  0
   -6.0638  -14.5205    0.0000 H   0  0  0  0  0  0  0  0  0  0  0  0
   -8.3000  -13.9905    0.0000 H   0  0  0  0  0  0  0  0  0  0  0  0
   -8.8796  -12.0544    0.0000 H   0  0  0  0  0  0  0  0  0  0  0  0
   -7.4857  -10.3834    0.0000 H   0  0  0  0  0  0  0  0  0  0  0  0
   -1.8033   -8.3880    0.0000 H   0  0  0  0  0  0  0  0  0  0  0  0
   -0.0516  -10.8382    0.0000 H   0  0  0  0  0  0  0  0  0  0  0  0
   -1.7156   -9.5225    0.0000 H   0  0  0  0  0  0  0  0  0  0  0  0
    1.2742   -9.3571    0.0000 H   0  0  0  0  0  0  0  0  0  0  0  0
    1.4444   -9.1419    0.0000 H   0  0  0  0  0  0  0  0  0  0  0  0
    1.0988   -6.1844    0.0000 H   0  0  0  0  0  0  0  0  0  0  0  0
    2.7540   -9.0001    0.0000 H   0  0  0  0  0  0  0  0  0  0  0  0
    2.4057   -6.0204    0.0000 H   0  0  0  0  0  0  0  0  0  0  0  0
    5.5596   -7.1619    0.0000 H   0  0  0  0  0  0  0  0  0  0  0  0
    3.8956   -5.8462    0.0000 H   0  0  0  0  0  0  0  0  0  0  0  0
    4.2438   -8.8259    0.0000 H   0  0  0  0  0  0  0  0  0  0  0  0
    1.4718   -3.1889    0.0000 H   0  0  0  0  0  0  0  0  0  0  0  0
    0.2328   -3.6522    0.0000 H   0  0  0  0  0  0  0  0  0  0  0  0
    3.1773   -1.4968    0.0000 H   0  0  0  0  0  0  0  0  0  0  0  0
    2.2011   -2.8161    0.0000 H   0  0  0  0  0  0  0  0  0  0  0  0
  1  2  2  3
  2  3  1  0
  3  4  1  0
  4  5  1  0
  5  6  1  0
  6  7  1  0
  7  8  1  0
  8  9  1  0
  7 10  1  0
 10 11  1  0
 11 12  1  0
 12 13  1  0
 13 14  1  0
 14 15  1  0
 15 16  1  0
 16 17  1  0
 17 18  1  0
 18 19  1  0
 19 20  1  0
 20 21  1  0
 13 22  1  0
 22 23  1  0
 22 24  1  0
 24 25  1  0
 25 26  1  0
 10 27  1  0
 27 28  1  0
 28  2  1  0
 21 19  1  0
  1 29  1  0
  1 30  1  0
  3 31  1  0
  3 32  1  0
  4 33  1  0
  4 34  1  0
  5 35  1  0
  5 36  1  0
  6 37  1  0
  6 38  1  0
  7 39  1  1
  8 40  1  0
  8 41  1  0
  9 42  1  0
  9 43  1  0
  9 44  1  0
 10 45  1  1
 11 46  1  0
 11 47  1  0
 12 48  1  0
 12 49  1  0
 13 50  1  6
 16 51  1  0
 17 52  1  0
 17 53  1  0
 18 54  1  0
 18 55  1  0
 19 56  1  0
 20 57  1  0
 20 58  1  0
 21 59  1  0
 21 60  1  0
 22 61  1  6
 23 62  1  0
 23 63  1  0
 23 64  1  0
 24 65  1  0
 24 66  1  0
 25 67  1  0
 25 68  1  0
 26 69  1  0
 26 70  1  0
 26 71  1  0
 27 72  1  0
 27 73  1  0
 28 74  1  0
 28 75  1  0
M  END
$$$$
