
     RDKit          2D

 70 77  0  0  0  0  0  0  0  0999 V2000
    6.8282   -5.1389    0.0000 C   0  0  0  0  0  0  0  0  0  0  0  0
    7.9773   -6.1031    0.0000 C   0  0  0  0  0  0  0  0  0  0  0  0
    8.9415   -4.9540    0.0000 C   0  0  0  0  0  0  0  0  0  0  0  0
    7.0131   -7.2521    0.0000 C   0  0  0  0  0  0  0  0  0  0  0  0
    8.1622   -8.2163    0.0000 C   0  0  0  0  0  0  0  0  0  0  0  0
    7.1980   -9.3654    0.0000 C   0  0  0  0  0  0  0  0  0  0  0  0
    6.0489   -8.4012    0.0000 C   0  0  0  0  0  0  0  0  0  0  0  0
    5.0847   -9.5503    0.0000 C   0  0  0  0  0  0  0  0  0  0  0  0
    3.7857  -10.3003    0.0000 C   0  0  0  0  0  0  0  0  0  0  0  0
    2.4867   -9.5503    0.0000 C   0  0  0  0  0  0  0  0  0  0  0  0
    3.7857   -8.8003    0.0000 C   0  0  0  0  0  0  0  0  0  0  0  0
    2.4867   -8.0503    0.0000 C   0  0  0  0  0  0  0  0  0  0  0  0
    1.0095   -7.7898    0.0000 C   0  0  0  0  0  0  0  0  0  0  0  0
   -0.4678   -7.5293    0.0000 C   0  0  0  0  0  0  0  0  0  0  0  0
   -1.9450   -7.2688    0.0000 C   0  0  0  0  0  0  0  0  0  0  0  0
   -3.4222   -7.0084    0.0000 F   0  0  0  0  0  0  0  0  0  0  0  0
    2.9997   -6.6407    0.0000 C   0  0  0  0  0  0  0  0  0  0  0  0
    3.5127   -5.2312    0.0000 C   0  0  0  0  0  0  0  0  0  0  0  0
    4.0258   -3.8216    0.0000 C   0  0  0  0  0  0  0  0  0  0  0  0
    5.0912   -4.0676    0.0000 F   0  0  0  0  0  0  0  0  0  0  0  0
    2.6162   -3.3086    0.0000 C   0  0  0  0  0  0  0  0  0  0  0  0
    1.9352   -4.6451    0.0000 F   0  0  0  0  0  0  0  0  0  0  0  0
    3.1292   -1.8991    0.0000 C   0  0  0  0  0  0  0  0  0  0  0  0
    4.6272   -1.9775    0.0000 F   0  0  0  0  0  0  0  0  0  0  0  0
    3.1292   -0.3991    0.0000 C   0  0  0  0  0  0  0  0  0  0  0  0
    1.8302   -1.1491    0.0000 C   0  0  0  0  0  0  0  0  0  0  0  0
    0.8660    0.0000    0.0000 C   0  0  0  0  0  0  0  0  0  0  0  0
   -0.4330    0.7500    0.0000 C   0  0  0  0  0  0  0  0  0  0  0  0
   -1.9330    0.7500    0.0000 C   0  0  0  0  0  0  0  0  0  0  0  0
   -1.9330   -0.7500    0.0000 C   0  0  0  0  0  0  0  0  0  0  0  0
   -0.4330   -0.7500    0.0000 C   0  0  0  0  0  0  0  0  0  0  0  0
   -1.4380   -0.2550    0.0000 C   0  0  0  0  0  0  0  0  0  0  0  0
    7.3106   -4.3960    0.0000 H   0  0  0  0  0  0  0  0  0  0  0  0
    6.1804   -5.7429    0.0000 H   0  0  0  0  0  0  0  0  0  0  0  0
    6.0825   -4.3391    0.0000 H   0  0  0  0  0  0  0  0  0  0  0  0
    9.1095   -6.8383    0.0000 H   0  0  0  0  0  0  0  0  0  0  0  0
    8.3374   -4.3062    0.0000 H   0  0  0  0  0  0  0  0  0  0  0  0
   10.0905   -5.9182    0.0000 H   0  0  0  0  0  0  0  0  0  0  0  0
    9.9056   -3.8049    0.0000 H   0  0  0  0  0  0  0  0  0  0  0  0
    6.2702   -6.7697    0.0000 H   0  0  0  0  0  0  0  0  0  0  0  0
    9.1495   -7.2956    0.0000 H   0  0  0  0  0  0  0  0  0  0  0  0
    9.3112   -9.1805    0.0000 H   0  0  0  0  0  0  0  0  0  0  0  0
    8.3471  -10.3295    0.0000 H   0  0  0  0  0  0  0  0  0  0  0  0
    6.3811  -10.6234    0.0000 H   0  0  0  0  0  0  0  0  0  0  0  0
    5.0260   -7.3041    0.0000 H   0  0  0  0  0  0  0  0  0  0  0  0
    5.9017  -10.8083    0.0000 H   0  0  0  0  0  0  0  0  0  0  0  0
    3.7857  -11.8003    0.0000 H   0  0  0  0  0  0  0  0  0  0  0  0
    1.1876  -10.3003    0.0000 H   0  0  0  0  0  0  0  0  0  0  0  0
    0.7490   -9.2670    0.0000 H   0  0  0  0  0  0  0  0  0  0  0  0
    1.0879   -6.2918    0.0000 H   0  0  0  0  0  0  0  0  0  0  0  0
   -0.7282   -9.0065    0.0000 H   0  0  0  0  0  0  0  0  0  0  0  0
   -0.2073   -6.0521    0.0000 H   0  0  0  0  0  0  0  0  0  0  0  0
   -1.6845   -5.7916    0.0000 H   0  0  0  0  0  0  0  0  0  0  0  0
   -2.2054   -8.7460    0.0000 H   0  0  0  0  0  0  0  0  0  0  0  0
    4.4613   -6.9781    0.0000 H   0  0  0  0  0  0  0  0  0  0  0  0
    1.6632   -5.9597    0.0000 H   0  0  0  0  0  0  0  0  0  0  0  0
    4.9223   -5.7442    0.0000 H   0  0  0  0  0  0  0  0  0  0  0  0
    2.0512   -4.8938    0.0000 H   0  0  0  0  0  0  0  0  0  0  0  0
    4.7068   -2.4851    0.0000 H   0  0  0  0  0  0  0  0  0  0  0  0
    1.1547   -2.9712    0.0000 H   0  0  0  0  0  0  0  0  0  0  0  0
    4.6065   -0.1386    0.0000 H   0  0  0  0  0  0  0  0  0  0  0  0
    2.7919    1.0625    0.0000 H   0  0  0  0  0  0  0  0  0  0  0  0
    0.7331   -2.1720    0.0000 H   0  0  0  0  0  0  0  0  0  0  0  0
    1.6830    1.2580    0.0000 H   0  0  0  0  0  0  0  0  0  0  0  0
   -0.0448    2.1989    0.0000 H   0  0  0  0  0  0  0  0  0  0  0  0
   -2.9937    1.8107    0.0000 H   0  0  0  0  0  0  0  0  0  0  0  0
   -2.1159   -2.2388    0.0000 H   0  0  0  0  0  0  0  0  0  0  0  0
   -3.4218   -0.9328    0.0000 H   0  0  0  0  0  0  0  0  0  0  0  0
   -3.4218   -0.5672    0.0000 H   0  0  0  0  0  0  0  0  0  0  0  0
   -1.7502   -2.2388    0.0000 H   0  0  0  0  0  0  0  0  0  0  0  0
  1  2  1  0
  2  3  1  0
  2  4  1  0
  4  5  1  0
  5  6  1  0
  6  7  1  0
  7  8  1  0
  8  9  1  0
  9 10  1  0
 10 11  1  0
 11 12  1  1
 12 13  1  6
 13 14  1  0
 14 15  1  0
 15 16  1  0
 12 17  1  0
 17 18  1  0
 18 19  1  0
 19 20  1  0
 19 21  1  0
 21 22  1  0
 21 23  1  0
 23 24  1  6
 23 25  1  0
 25 26  1  0
 26 27  1  0
 27 28  1  0
 28 29  1  0
 29 30  1  0
 31 30  1  6
 31 32  1  0
  7  4  1  0
 11  8  1  0
 26 23  1  0
 31 27  1  0
 11  9  1  0
 31 28  1  0
 12 10  1  0
 32 29  1  0
  1 33  1  0
  1 34  1  0
  1 35  1  0
  2 36  1  0
  3 37  1  0
  3 38  1  0
  3 39  1  0
  4 40  1  6
  5 41  1  0
  5 42  1  0
  6 43  1  0
  6 44  1  0
  7 45  1  1
  8 46  1  6
  9 47  1  1
 10 48  1  6
 13 49  1  0
 13 50  1  0
 14 51  1  0
 14 52  1  0
 15 53  1  0
 15 54  1  0
 17 55  1  0
 17 56  1  0
 18 57  1  0
 18 58  1  0
 19 59  1  6
 21 60  1  6
 25 61  1  0
 25 62  1  0
 26 63  1  1
 27 64  1  6
 28 65  1  6
 29 66  1  1
 30 67  1  0
 30 68  1  0
 32 69  1  0
 32 70  1  0
M  END
$$$$
