
     RDKit          2D

 60 63  0  0  0  0  0  0  0  0999 V2000
   -1.7321   -3.0000    0.0000 C   0  0  0  0  0  0  0  0  0  0  0  0
   -1.7321   -1.5000    0.0000 C   0  0  0  0  0  0  0  0  0  0  0  0
   -3.0311   -0.7500    0.0000 C   0  0  0  0  0  0  0  0  0  0  0  0
   -3.5441   -2.1595    0.0000 O   0  0  0  0  0  0  0  0  0  0  0  0
   -3.0311    0.7500    0.0000 C   0  0  0  0  0  0  0  0  0  0  0  0
   -3.0311    2.2500    0.0000 C   0  0  0  0  0  0  0  0  0  0  0  0
   -2.5181    3.6595    0.0000 C   0  0  0  0  0  0  0  0  0  0  0  0
   -2.0050    5.0691    0.0000 C   0  0  0  0  0  0  0  0  0  0  0  0
   -0.5278    5.3296    0.0000 C   0  0  0  0  0  0  0  0  0  0  0  0
   -0.0148    6.7391    0.0000 C   0  0  0  0  0  0  0  0  0  0  0  0
    0.4982    8.1486    0.0000 C   0  0  0  0  0  0  0  0  0  0  0  0
   -2.9692    6.2181    0.0000 C   0  0  0  0  0  0  0  0  0  0  0  0
   -3.9334    7.3672    0.0000 C   0  0  0  0  0  0  0  0  0  0  0  0
   -4.1183    5.2540    0.0000 O   0  0  0  0  0  0  0  0  0  0  0  0
   -5.5278    5.7670    0.0000 C   0  0  0  0  0  0  0  0  0  0  0  0
   -6.9374    6.2800    0.0000 C   0  0  0  0  0  0  0  0  0  0  0  0
   -6.4243    7.6896    0.0000 N   0  0  0  0  0  0  0  0  0  0  0  0
   -8.3469    6.7931    0.0000 C   0  0  0  0  0  0  0  0  0  0  0  0
   -9.7564    7.3061    0.0000 C   0  0  0  0  0  0  0  0  0  0  0  0
   -9.4960    8.7833    0.0000 F   0  0  0  0  0  0  0  0  0  0  0  0
  -11.2564    7.3061    0.0000 C   0  0  0  0  0  0  0  0  0  0  0  0
  -10.5064    6.0070    0.0000 C   0  0  0  0  0  0  0  0  0  0  0  0
   -1.7321    1.5000    0.0000 C   0  0  0  0  0  0  0  0  0  0  0  0
   -0.4330    0.7500    0.0000 C   0  0  0  0  0  0  0  0  0  0  0  0
    0.8660    0.0000    0.0000 C   0  0  0  0  0  0  0  0  0  0  0  0
   -0.4330   -0.7500    0.0000 C   0  0  0  0  0  0  0  0  0  0  0  0
   -3.0311   -3.7500    0.0000 H   0  0  0  0  0  0  0  0  0  0  0  0
   -0.4330   -3.7500    0.0000 H   0  0  0  0  0  0  0  0  0  0  0  0
   -4.5083   -0.4895    0.0000 H   0  0  0  0  0  0  0  0  0  0  0  0
   -5.0213   -2.4200    0.0000 H   0  0  0  0  0  0  0  0  0  0  0  0
   -4.5311    0.7500    0.0000 H   0  0  0  0  0  0  0  0  0  0  0  0
   -4.5083    2.5105    0.0000 H   0  0  0  0  0  0  0  0  0  0  0  0
   -1.0565    3.3222    0.0000 H   0  0  0  0  0  0  0  0  0  0  0  0
   -3.9276    4.1726    0.0000 H   0  0  0  0  0  0  0  0  0  0  0  0
    0.4364    4.1805    0.0000 H   0  0  0  0  0  0  0  0  0  0  0  0
    1.3948    6.2261    0.0000 H   0  0  0  0  0  0  0  0  0  0  0  0
   -1.0973    7.2907    0.0000 H   0  0  0  0  0  0  0  0  0  0  0  0
    1.0113    9.5582    0.0000 H   0  0  0  0  0  0  0  0  0  0  0  0
    1.9078    7.6356    0.0000 H   0  0  0  0  0  0  0  0  0  0  0  0
   -0.9113    8.6617    0.0000 H   0  0  0  0  0  0  0  0  0  0  0  0
   -2.1406    7.1068    0.0000 H   0  0  0  0  0  0  0  0  0  0  0  0
   -4.7503    8.6252    0.0000 H   0  0  0  0  0  0  0  0  0  0  0  0
   -2.7843    8.3314    0.0000 H   0  0  0  0  0  0  0  0  0  0  0  0
   -4.6871    7.1077    0.0000 H   0  0  0  0  0  0  0  0  0  0  0  0
   -5.2552    6.5161    0.0000 H   0  0  0  0  0  0  0  0  0  0  0  0
   -6.0408    4.3575    0.0000 H   0  0  0  0  0  0  0  0  0  0  0  0
   -7.4504    4.8705    0.0000 H   0  0  0  0  0  0  0  0  0  0  0  0
   -7.2412    8.9476    0.0000 H   0  0  0  0  0  0  0  0  0  0  0  0
   -5.0540    8.2997    0.0000 H   0  0  0  0  0  0  0  0  0  0  0  0
   -8.6843    5.3315    0.0000 H   0  0  0  0  0  0  0  0  0  0  0  0
   -8.0095    8.2546    0.0000 H   0  0  0  0  0  0  0  0  0  0  0  0
  -11.5169    8.7833    0.0000 H   0  0  0  0  0  0  0  0  0  0  0  0
  -12.6660    6.7931    0.0000 H   0  0  0  0  0  0  0  0  0  0  0  0
  -11.6555    5.0429    0.0000 H   0  0  0  0  0  0  0  0  0  0  0  0
   -9.4835    4.9100    0.0000 H   0  0  0  0  0  0  0  0  0  0  0  0
   -0.8293    2.6979    0.0000 H   0  0  0  0  0  0  0  0  0  0  0  0
    0.3170    2.0490    0.0000 H   0  0  0  0  0  0  0  0  0  0  0  0
    1.8302    1.1491    0.0000 H   0  0  0  0  0  0  0  0  0  0  0  0
    1.8302   -1.1491    0.0000 H   0  0  0  0  0  0  0  0  0  0  0  0
    0.3170   -2.0490    0.0000 H   0  0  0  0  0  0  0  0  0  0  0  0
  1  2  2  3
  2  3  1  0
  3  4  1  0
  3  5  1  0
  5  6  1  0
  6  7  1  0
  7  8  1  0
  8  9  2  3
  9 10  1  0
 10 11  1  0
  8 12  1  0
 12 13  1  0
 12 14  1  0
 14 15  1  0
 15 16  1  0
 16 17  1  0
 16 18  1  0
 18 19  1  0
 19 20  1  0
 19 21  1  0
 21 22  1  0
  6 23  1  0
 23 24  1  0
 24 25  1  0
 25 26  1  0
 26  2  1  0
 23  5  1  0
 26 24  1  0
 22 19  1  0
  1 27  1  0
  1 28  1  0
  3 29  1  1
  4 30  1  0
  5 31  1  6
  6 32  1  6
  7 33  1  0
  7 34  1  0
  9 35  1  0
 10 36  1  0
 10 37  1  0
 11 38  1  0
 11 39  1  0
 11 40  1  0
 12 41  1  1
 13 42  1  0
 13 43  1  0
 13 44  1  0
 15 45  1  0
 15 46  1  0
 16 47  1  1
 17 48  1  0
 17 49  1  0
 18 50  1  0
 18 51  1  0
 21 52  1  0
 21 53  1  0
 22 54  1  0
 22 55  1  0
 23 56  1  6
 24 57  1  6
 25 58  1  0
 25 59  1  0
 26 60  1  6
M  END
$$$$
