
     RDKit          2D

 24 25  0  0  0  0  0  0  0  0999 V2000
    1.9979    3.1608    0.0000 O   0  0  0  0  0  0  0  0  0  0  0  0
    1.9979    1.6608    0.0000 C   0  0  0  0  0  0  0  0  0  0  0  0
    2.7479    0.3618    0.0000 C   0  0  0  0  0  0  0  0  0  0  0  0
    2.3597   -1.0871    0.0000 C   0  0  0  0  0  0  0  0  0  0  0  0
    0.7500   -1.2990    0.0000 N   0  0  0  0  0  0  0  0  0  0  0  0
    0.8000   -0.0000    0.0000 C   0  0  0  0  0  0  0  0  0  0  0  0
    0.4000    0.6928    0.0000 C   0  0  0  0  0  0  0  0  0  0  0  0
   -0.7500    1.2990    0.0000 C   0  0  0  0  0  0  0  0  0  0  0  0
   -1.5000    0.0000    0.0000 O   0  0  0  0  0  0  0  0  0  0  0  0
   -0.7500   -1.2990    0.0000 C   0  0  0  0  0  0  0  0  0  0  0  0
    0.5490    2.0490    0.0000 O   0  0  0  0  0  0  0  0  0  0  0  0
    3.2970    3.9108    0.0000 H   0  0  0  0  0  0  0  0  0  0  0  0
    3.3887    2.2228    0.0000 H   0  0  0  0  0  0  0  0  0  0  0  0
    3.9300    1.2852    0.0000 H   0  0  0  0  0  0  0  0  0  0  0  0
    4.1287   -0.2243    0.0000 H   0  0  0  0  0  0  0  0  0  0  0  0
    3.8485   -1.2700    0.0000 H   0  0  0  0  0  0  0  0  0  0  0  0
    2.7479   -2.5360    0.0000 H   0  0  0  0  0  0  0  0  0  0  0  0
    1.8377    0.7962    0.0000 H   0  0  0  0  0  0  0  0  0  0  0  0
    1.8885   -0.3494    0.0000 H   0  0  0  0  0  0  0  0  0  0  0  0
    0.6983    2.0723    0.0000 H   0  0  0  0  0  0  0  0  0  0  0  0
    2.2418    1.4558    0.0000 H   0  0  0  0  0  0  0  0  0  0  0  0
   -1.5000    2.5981    0.0000 H   0  0  0  0  0  0  0  0  0  0  0  0
   -0.4895   -2.7762    0.0000 H   0  0  0  0  0  0  0  0  0  0  0  0
   -2.1595   -1.8121    0.0000 H   0  0  0  0  0  0  0  0  0  0  0  0
  1  2  1  0
  2  3  1  0
  3  4  1  0
  4  5  1  0
  5  6  1  0
  6  7  1  0
  7  8  1  0
  8  9  1  0
  9 10  1  0
  8 11  1  0
 11  2  1  0
 10  5  1  0
  1 12  1  0
  2 13  1  0
  3 14  1  0
  3 15  1  0
  4 16  1  0
  4 17  1  0
  6 18  1  0
  6 19  1  0
  7 20  1  0
  7 21  1  0
  8 22  1  0
 10 23  1  0
 10 24  1  0
M  END
$$$$
