
     RDKit          2D

 67 67  0  0  0  0  0  0  0  0999 V2000
   10.1422    4.9151    0.0000 C   0  0  0  0  0  0  0  0  0  0  0  0
    8.6933    5.3033    0.0000 C   0  0  0  0  0  0  0  0  0  0  0  0
    7.2444    5.6915    0.0000 C   0  0  0  0  0  0  0  0  0  0  0  0
    5.7956    6.0798    0.0000 C   0  0  0  0  0  0  0  0  0  0  0  0
    6.8562    4.2426    0.0000 C   0  0  0  0  0  0  0  0  0  0  0  0
    6.4680    2.7938    0.0000 C   0  0  0  0  0  0  0  0  0  0  0  0
    6.0798    1.3449    0.0000 C   0  0  0  0  0  0  0  0  0  0  0  0
    5.6915   -0.1040    0.0000 C   0  0  0  0  0  0  0  0  0  0  0  0
    4.6309    1.7331    0.0000 C   0  0  0  0  0  0  0  0  0  0  0  0
    3.1820    2.1213    0.0000 N   0  0  0  0  0  0  0  0  0  0  0  0
    2.1213    1.0607    0.0000 C   0  0  0  0  0  0  0  0  0  0  0  0
    1.0607    0.0000    0.0000 C   0  0  0  0  0  0  0  0  0  0  0  0
   -0.0000   -1.0607    0.0000 C   0  0  0  0  0  0  0  0  0  0  0  0
   -1.0607    0.0000    0.0000 N   0  0  0  0  0  0  0  0  0  0  0  0
    0.0000    1.0607    0.0000 C   0  0  0  0  0  0  0  0  0  0  0  0
    5.0191    3.1820    0.0000 C   0  0  0  0  0  0  0  0  0  0  0  0
    3.5702    3.5702    0.0000 C   0  0  0  0  0  0  0  0  0  0  0  0
    2.1213    3.9584    0.0000 C   0  0  0  0  0  0  0  0  0  0  0  0
    0.6724    4.3467    0.0000 O   0  0  0  0  0  0  0  0  0  0  0  0
    5.4073    4.6309    0.0000 C   0  0  0  0  0  0  0  0  0  0  0  0
    5.7956    6.0798    0.0000 C   0  0  0  0  0  0  0  0  0  0  0  0
    3.9584    5.0191    0.0000 C   0  0  0  0  0  0  0  0  0  0  0  0
    2.5095    5.4073    0.0000 C   0  0  0  0  0  0  0  0  0  0  0  0
    4.3467    6.4680    0.0000 N   0  0  0  0  0  0  0  0  0  0  0  0
   11.5911    4.5268    0.0000 H   0  0  0  0  0  0  0  0  0  0  0  0
   10.5304    6.3640    0.0000 H   0  0  0  0  0  0  0  0  0  0  0  0
    9.7540    3.4662    0.0000 H   0  0  0  0  0  0  0  0  0  0  0  0
    8.4846    3.8179    0.0000 H   0  0  0  0  0  0  0  0  0  0  0  0
    9.0816    6.7522    0.0000 H   0  0  0  0  0  0  0  0  0  0  0  0
    7.6327    7.1404    0.0000 H   0  0  0  0  0  0  0  0  0  0  0  0
    4.5821    6.9615    0.0000 H   0  0  0  0  0  0  0  0  0  0  0  0
    6.3575    7.4705    0.0000 H   0  0  0  0  0  0  0  0  0  0  0  0
    6.0043    7.5652    0.0000 H   0  0  0  0  0  0  0  0  0  0  0  0
    5.5443    4.9699    0.0000 H   0  0  0  0  0  0  0  0  0  0  0  0
    8.2470    3.6807    0.0000 H   0  0  0  0  0  0  0  0  0  0  0  0
    7.9169    2.4055    0.0000 H   0  0  0  0  0  0  0  0  0  0  0  0
    7.5286    0.9566    0.0000 H   0  0  0  0  0  0  0  0  0  0  0  0
    5.3033   -1.5529    0.0000 H   0  0  0  0  0  0  0  0  0  0  0  0
    7.1404   -0.4923    0.0000 H   0  0  0  0  0  0  0  0  0  0  0  0
    4.2061    0.1047    0.0000 H   0  0  0  0  0  0  0  0  0  0  0  0
    4.0689    0.3423    0.0000 H   0  0  0  0  0  0  0  0  0  0  0  0
    4.6570    3.2329    0.0000 H   0  0  0  0  0  0  0  0  0  0  0  0
    1.9238    2.9381    0.0000 H   0  0  0  0  0  0  0  0  0  0  0  0
    3.1820    0.0000    0.0000 H   0  0  0  0  0  0  0  0  0  0  0  0
    1.0607    2.1213    0.0000 H   0  0  0  0  0  0  0  0  0  0  0  0
    2.1213   -1.0607    0.0000 H   0  0  0  0  0  0  0  0  0  0  0  0
    1.0607   -2.1213    0.0000 H   0  0  0  0  0  0  0  0  0  0  0  0
   -1.0607   -2.1213    0.0000 H   0  0  0  0  0  0  0  0  0  0  0  0
   -2.5607    0.0000    0.0000 H   0  0  0  0  0  0  0  0  0  0  0  0
   -1.0607    2.1213    0.0000 H   0  0  0  0  0  0  0  0  0  0  0  0
    1.0607    2.1213    0.0000 H   0  0  0  0  0  0  0  0  0  0  0  0
    4.2918    1.8701    0.0000 H   0  0  0  0  0  0  0  0  0  0  0  0
    3.5963    5.0700    0.0000 H   0  0  0  0  0  0  0  0  0  0  0  0
    2.8429    2.2583    0.0000 H   0  0  0  0  0  0  0  0  0  0  0  0
    2.1474    5.4582    0.0000 H   0  0  0  0  0  0  0  0  0  0  0  0
    1.7331    2.5095    0.0000 H   0  0  0  0  0  0  0  0  0  0  0  0
    0.1105    5.7374    0.0000 H   0  0  0  0  0  0  0  0  0  0  0  0
    6.9071    4.6048    0.0000 H   0  0  0  0  0  0  0  0  0  0  0  0
    6.6773    7.2932    0.0000 H   0  0  0  0  0  0  0  0  0  0  0  0
    4.4048    6.6417    0.0000 H   0  0  0  0  0  0  0  0  0  0  0  0
    7.2953    6.0537    0.0000 H   0  0  0  0  0  0  0  0  0  0  0  0
    3.0767    3.8056    0.0000 H   0  0  0  0  0  0  0  0  0  0  0  0
    1.1188    5.9693    0.0000 H   0  0  0  0  0  0  0  0  0  0  0  0
    2.7183    6.8927    0.0000 H   0  0  0  0  0  0  0  0  0  0  0  0
    1.6278    4.1939    0.0000 H   0  0  0  0  0  0  0  0  0  0  0  0
    3.4232    7.6500    0.0000 H   0  0  0  0  0  0  0  0  0  0  0  0
    5.0040    7.8163    0.0000 H   0  0  0  0  0  0  0  0  0  0  0  0
  1  2  1  0
  2  3  1  0
  3  4  1  0
  3  5  1  0
  5  6  1  0
  6  7  1  0
  7  8  1  0
  7  9  1  0
  9 10  1  0
 10 11  1  0
 11 12  1  0
 12 13  1  0
 13 14  1  0
 14 15  1  0
  6 16  1  0
 16 17  1  0
 17 18  1  0
 18 19  1  0
 16 20  1  0
 20 21  1  0
 20 22  1  0
 22 23  1  0
 22 24  1  0
 15 12  1  0
  1 25  1  0
  1 26  1  0
  1 27  1  0
  2 28  1  0
  2 29  1  0
  3 30  1  0
  4 31  1  0
  4 32  1  0
  4 33  1  0
  5 34  1  0
  5 35  1  0
  6 36  1  0
  7 37  1  0
  8 38  1  0
  8 39  1  0
  8 40  1  0
  9 41  1  0
  9 42  1  0
 10 43  1  0
 11 44  1  0
 11 45  1  0
 12 46  1  0
 13 47  1  0
 13 48  1  0
 14 49  1  0
 15 50  1  0
 15 51  1  0
 16 52  1  0
 17 53  1  0
 17 54  1  0
 18 55  1  0
 18 56  1  0
 19 57  1  0
 20 58  1  0
 21 59  1  0
 21 60  1  0
 21 61  1  0
 22 62  1  0
 23 63  1  0
 23 64  1  0
 23 65  1  0
 24 66  1  0
 24 67  1  0
M  END
$$$$
