
     RDKit          2D

 54 57  0  0  0  0  0  0  0  0999 V2000
   12.1707    3.6742    0.0000 C   0  0  0  0  0  0  0  0  0  0  0  0
   10.6935    3.4138    0.0000 C   0  0  0  0  0  0  0  0  0  0  0  0
   10.9539    1.9366    0.0000 N   0  0  0  0  0  0  0  0  0  0  0  0
    9.2163    3.1533    0.0000 C   0  0  0  0  0  0  0  0  0  0  0  0
    7.7391    2.8928    0.0000 C   0  0  0  0  0  0  0  0  0  0  0  0
    6.2618    2.6324    0.0000 C   0  0  0  0  0  0  0  0  0  0  0  0
    4.7846    2.3719    0.0000 C   0  0  0  0  0  0  0  0  0  0  0  0
    3.3074    2.1114    0.0000 C   0  0  0  0  0  0  0  0  0  0  0  0
    1.8302    1.8509    0.0000 N   0  0  0  0  0  0  0  0  0  0  0  0
    1.3172    0.4414    0.0000 C   0  0  0  0  0  0  0  0  0  0  0  0
    0.8660    3.0000    0.0000 C   0  0  0  0  0  0  0  0  0  0  0  0
   -0.4330    2.2500    0.0000 N   0  0  0  0  0  0  0  0  0  0  0  0
   -0.4330    0.7500    0.0000 O   0  0  0  0  0  0  0  0  0  0  0  0
   -1.7321    3.0000    0.0000 C   0  0  0  0  0  0  0  0  0  0  0  0
   -1.7321    4.5000    0.0000 C   0  0  0  0  0  0  0  0  0  0  0  0
   -3.0311    3.7500    0.0000 C   0  0  0  0  0  0  0  0  0  0  0  0
   -3.0311    2.2500    0.0000 C   0  0  0  0  0  0  0  0  0  0  0  0
   -4.5083    1.9895    0.0000 C   0  0  0  0  0  0  0  0  0  0  0  0
   -2.5181    0.8405    0.0000 N   0  0  0  0  0  0  0  0  0  0  0  0
    0.3530    4.4095    0.0000 C   0  0  0  0  0  0  0  0  0  0  0  0
    1.3172    5.5586    0.0000 C   0  0  0  0  0  0  0  0  0  0  0  0
    0.3530    6.7077    0.0000 O   0  0  0  0  0  0  0  0  0  0  0  0
    1.8302    4.1491    0.0000 N   0  0  0  0  0  0  0  0  0  0  0  0
   13.6479    3.9347    0.0000 H   0  0  0  0  0  0  0  0  0  0  0  0
   12.6093    2.2398    0.0000 H   0  0  0  0  0  0  0  0  0  0  0  0
   11.9102    5.1515    0.0000 H   0  0  0  0  0  0  0  0  0  0  0  0
   10.4330    4.8910    0.0000 H   0  0  0  0  0  0  0  0  0  0  0  0
   12.2904    1.2555    0.0000 H   0  0  0  0  0  0  0  0  0  0  0  0
    9.9310    0.8395    0.0000 H   0  0  0  0  0  0  0  0  0  0  0  0
    8.9558    4.6305    0.0000 H   0  0  0  0  0  0  0  0  0  0  0  0
    9.2947    1.6553    0.0000 H   0  0  0  0  0  0  0  0  0  0  0  0
    7.9995    1.4156    0.0000 H   0  0  0  0  0  0  0  0  0  0  0  0
    7.4786    4.3700    0.0000 H   0  0  0  0  0  0  0  0  0  0  0  0
    6.0014    4.1096    0.0000 H   0  0  0  0  0  0  0  0  0  0  0  0
    6.5223    1.1551    0.0000 H   0  0  0  0  0  0  0  0  0  0  0  0
    5.0451    0.8947    0.0000 H   0  0  0  0  0  0  0  0  0  0  0  0
    4.5242    3.8491    0.0000 H   0  0  0  0  0  0  0  0  0  0  0  0
    3.0469    3.5886    0.0000 H   0  0  0  0  0  0  0  0  0  0  0  0
    3.5679    0.6342    0.0000 H   0  0  0  0  0  0  0  0  0  0  0  0
    0.8041   -0.9681    0.0000 H   0  0  0  0  0  0  0  0  0  0  0  0
    2.7267   -0.0716    0.0000 H   0  0  0  0  0  0  0  0  0  0  0  0
    0.5244    0.5247    0.0000 H   0  0  0  0  0  0  0  0  0  0  0  0
    0.6459   -0.2920    0.0000 H   0  0  0  0  0  0  0  0  0  0  0  0
   -0.4464    5.2727    0.0000 H   0  0  0  0  0  0  0  0  0  0  0  0
   -2.2451    5.9095    0.0000 H   0  0  0  0  0  0  0  0  0  0  0  0
   -4.3301    4.5000    0.0000 H   0  0  0  0  0  0  0  0  0  0  0  0
   -5.9855    1.7291    0.0000 H   0  0  0  0  0  0  0  0  0  0  0  0
   -4.2478    0.5123    0.0000 H   0  0  0  0  0  0  0  0  0  0  0  0
   -4.7688    3.4667    0.0000 H   0  0  0  0  0  0  0  0  0  0  0  0
   -3.4822   -0.3086    0.0000 H   0  0  0  0  0  0  0  0  0  0  0  0
   -1.1478    0.2303    0.0000 H   0  0  0  0  0  0  0  0  0  0  0  0
   -0.9327    5.1822    0.0000 H   0  0  0  0  0  0  0  0  0  0  0  0
    2.6162    6.3086    0.0000 H   0  0  0  0  0  0  0  0  0  0  0  0
    0.8660    8.1172    0.0000 H   0  0  0  0  0  0  0  0  0  0  0  0
  1  2  1  0
  2  3  1  0
  2  4  1  0
  4  5  1  0
  5  6  1  0
  6  7  1  0
  7  8  1  0
  8  9  1  0
  9 10  1  0
  9 11  1  0
 11 12  1  0
 12 13  1  0
 12 14  1  0
 14 15  1  0
 15 16  1  0
 16 17  1  0
 17 18  1  0
 17 19  1  0
 11 20  1  0
 20 21  1  0
 21 22  1  0
 21 23  1  0
 23 11  1  0
 16 14  1  0
 23 20  1  0
 17 14  1  0
  1 24  1  0
  1 25  1  0
  1 26  1  0
  2 27  1  0
  3 28  1  0
  3 29  1  0
  4 30  1  0
  4 31  1  0
  5 32  1  0
  5 33  1  0
  6 34  1  0
  6 35  1  0
  7 36  1  0
  7 37  1  0
  8 38  1  0
  8 39  1  0
 10 40  1  0
 10 41  1  0
 10 42  1  0
 13 43  1  0
 15 44  1  0
 15 45  1  0
 16 46  1  0
 18 47  1  0
 18 48  1  0
 18 49  1  0
 19 50  1  0
 19 51  1  0
 20 52  1  0
 21 53  1  0
 22 54  1  0
M  END
$$$$
