
     RDKit          2D

 74 78  0  0  0  0  0  0  0  0999 V2000
   -5.9005    9.8805    0.0000 C   0  0  0  0  0  0  0  0  0  0  0  0
   -5.6769    8.3973    0.0000 C   0  0  0  0  0  0  0  0  0  0  0  0
   -5.4534    6.9140    0.0000 C   0  0  0  0  0  0  0  0  0  0  0  0
   -4.7360    5.5967    0.0000 C   0  0  0  0  0  0  0  0  0  0  0  0
   -5.5181    4.3168    0.0000 C   0  0  0  0  0  0  0  0  0  0  0  0
   -4.1218    3.7687    0.0000 C   0  0  0  0  0  0  0  0  0  0  0  0
   -2.7255    3.2207    0.0000 C   0  0  0  0  0  0  0  0  0  0  0  0
   -1.2297    3.3328    0.0000 C   0  0  0  0  0  0  0  0  0  0  0  0
   -0.2094    2.2332    0.0000 C   0  0  0  0  0  0  0  0  0  0  0  0
   -0.4330    0.7500    0.0000 C   0  0  0  0  0  0  0  0  0  0  0  0
    0.8660    0.0000    0.0000 C   0  0  0  0  0  0  0  0  0  0  0  0
    1.6160   -1.2990    0.0000 C   0  0  0  0  0  0  0  0  0  0  0  0
    0.3170   -2.0490    0.0000 C   0  0  0  0  0  0  0  0  0  0  0  0
   -0.9821   -2.7990    0.0000 C   0  0  0  0  0  0  0  0  0  0  0  0
   -2.2811   -3.5490    0.0000 C   0  0  0  0  0  0  0  0  0  0  0  0
   -0.2321   -4.0981    0.0000 F   0  0  0  0  0  0  0  0  0  0  0  0
   -0.4330   -0.7500    0.0000 C   0  0  0  0  0  0  0  0  0  0  0  0
   -1.7321    0.0000    0.0000 C   0  0  0  0  0  0  0  0  0  0  0  0
   -3.1284    0.5480    0.0000 C   0  0  0  0  0  0  0  0  0  0  0  0
   -3.3519   -0.9352    0.0000 C   0  0  0  0  0  0  0  0  0  0  0  0
   -3.5755   -2.4185    0.0000 C   0  0  0  0  0  0  0  0  0  0  0  0
   -3.7991   -3.9017    0.0000 C   0  0  0  0  0  0  0  0  0  0  0  0
   -4.0226   -5.3850    0.0000 C   0  0  0  0  0  0  0  0  0  0  0  0
   -5.2823   -3.6782    0.0000 O   0  0  0  0  0  0  0  0  0  0  0  0
   -3.5705    1.9814    0.0000 C   0  0  0  0  0  0  0  0  0  0  0  0
   -7.0177    4.3541    0.0000 C   0  0  0  0  0  0  0  0  0  0  0  0
   -7.7351    5.6715    0.0000 C   0  0  0  0  0  0  0  0  0  0  0  0
   -6.9529    6.9514    0.0000 C   0  0  0  0  0  0  0  0  0  0  0  0
   -8.3492    7.4994    0.0000 C   0  0  0  0  0  0  0  0  0  0  0  0
   -6.1241   11.3638    0.0000 H   0  0  0  0  0  0  0  0  0  0  0  0
   -4.4172   10.1041    0.0000 H   0  0  0  0  0  0  0  0  0  0  0  0
   -7.3999    9.8394    0.0000 H   0  0  0  0  0  0  0  0  0  0  0  0
   -7.1764    8.3562    0.0000 H   0  0  0  0  0  0  0  0  0  0  0  0
   -4.1937    8.6208    0.0000 H   0  0  0  0  0  0  0  0  0  0  0  0
   -4.0315    7.3918    0.0000 H   0  0  0  0  0  0  0  0  0  0  0  0
   -3.5632    6.5319    0.0000 H   0  0  0  0  0  0  0  0  0  0  0  0
   -4.0784    5.1460    0.0000 H   0  0  0  0  0  0  0  0  0  0  0  0
   -5.8154    2.8465    0.0000 H   0  0  0  0  0  0  0  0  0  0  0  0
   -4.8360    2.4496    0.0000 H   0  0  0  0  0  0  0  0  0  0  0  0
   -3.7423    4.4698    0.0000 H   0  0  0  0  0  0  0  0  0  0  0  0
   -2.6844    4.7202    0.0000 H   0  0  0  0  0  0  0  0  0  0  0  0
   -1.4938    4.8094    0.0000 H   0  0  0  0  0  0  0  0  0  0  0  0
   -0.0318    4.2356    0.0000 H   0  0  0  0  0  0  0  0  0  0  0  0
    0.7803    3.3604    0.0000 H   0  0  0  0  0  0  0  0  0  0  0  0
    1.1869    1.6852    0.0000 H   0  0  0  0  0  0  0  0  0  0  0  0
    1.9267    1.0607    0.0000 H   0  0  0  0  0  0  0  0  0  0  0  0
    2.3660   -2.5981    0.0000 H   0  0  0  0  0  0  0  0  0  0  0  0
    2.9151   -0.5490    0.0000 H   0  0  0  0  0  0  0  0  0  0  0  0
    1.0670   -3.3481    0.0000 H   0  0  0  0  0  0  0  0  0  0  0  0
   -1.7321   -1.5000    0.0000 H   0  0  0  0  0  0  0  0  0  0  0  0
   -3.3600   -4.5911    0.0000 H   0  0  0  0  0  0  0  0  0  0  0  0
   -1.5311   -4.8481    0.0000 H   0  0  0  0  0  0  0  0  0  0  0  0
   -3.3231   -2.4701    0.0000 H   0  0  0  0  0  0  0  0  0  0  0  0
   -2.3829   -1.3515    0.0000 H   0  0  0  0  0  0  0  0  0  0  0  0
   -4.5993    0.2544    0.0000 H   0  0  0  0  0  0  0  0  0  0  0  0
   -4.8352   -0.7117    0.0000 H   0  0  0  0  0  0  0  0  0  0  0  0
   -1.8687   -1.1588    0.0000 H   0  0  0  0  0  0  0  0  0  0  0  0
   -5.0587   -2.1949    0.0000 H   0  0  0  0  0  0  0  0  0  0  0  0
   -2.0922   -2.6420    0.0000 H   0  0  0  0  0  0  0  0  0  0  0  0
   -2.4140   -4.4776    0.0000 H   0  0  0  0  0  0  0  0  0  0  0  0
   -4.2462   -6.8682    0.0000 H   0  0  0  0  0  0  0  0  0  0  0  0
   -5.5221   -5.3439    0.0000 H   0  0  0  0  0  0  0  0  0  0  0  0
   -2.5394   -5.6085    0.0000 H   0  0  0  0  0  0  0  0  0  0  0  0
   -6.3535   -4.7282    0.0000 H   0  0  0  0  0  0  0  0  0  0  0  0
   -4.9513    1.3953    0.0000 H   0  0  0  0  0  0  0  0  0  0  0  0
   -4.7172    2.9484    0.0000 H   0  0  0  0  0  0  0  0  0  0  0  0
   -6.7941    2.8709    0.0000 H   0  0  0  0  0  0  0  0  0  0  0  0
   -8.4396    3.8764    0.0000 H   0  0  0  0  0  0  0  0  0  0  0  0
   -8.9078    4.7362    0.0000 H   0  0  0  0  0  0  0  0  0  0  0  0
   -8.9723    6.5195    0.0000 H   0  0  0  0  0  0  0  0  0  0  0  0
   -6.8371    8.4469    0.0000 H   0  0  0  0  0  0  0  0  0  0  0  0
   -9.7455    8.0474    0.0000 H   0  0  0  0  0  0  0  0  0  0  0  0
   -7.9755    8.9521    0.0000 H   0  0  0  0  0  0  0  0  0  0  0  0
   -9.0633    6.1803    0.0000 H   0  0  0  0  0  0  0  0  0  0  0  0
  1  2  1  0
  2  3  1  0
  3  4  1  0
  4  5  1  0
  5  6  1  0
  6  7  1  0
  7  8  1  0
  8  9  1  0
  9 10  1  0
 10 11  1  0
 11 12  1  0
 12 13  1  0
 13 14  1  0
 14 15  1  0
 14 16  1  0
 13 17  1  0
 17 18  1  0
 18 19  1  0
 19 20  1  0
 20 21  1  0
 21 22  1  0
 22 23  1  0
 22 24  1  0
 19 25  1  0
  5 26  1  0
 26 27  1  0
 27 28  1  0
 28 29  1  0
 28  3  1  0
 25  7  1  0
 17 10  1  0
 18 10  1  0
 17 11  1  0
  1 30  1  0
  1 31  1  0
  1 32  1  0
  2 33  1  0
  2 34  1  0
  3 35  1  0
  4 36  1  0
  4 37  1  0
  5 38  1  0
  6 39  1  0
  6 40  1  0
  7 41  1  0
  8 42  1  0
  8 43  1  0
  9 44  1  0
  9 45  1  0
 11 46  1  0
 12 47  1  0
 12 48  1  0
 13 49  1  0
 14 50  1  0
 15 51  1  0
 15 52  1  0
 15 53  1  0
 18 54  1  0
 19 55  1  0
 20 56  1  0
 20 57  1  0
 21 58  1  0
 21 59  1  0
 22 60  1  0
 23 61  1  0
 23 62  1  0
 23 63  1  0
 24 64  1  0
 25 65  1  0
 25 66  1  0
 26 67  1  0
 26 68  1  0
 27 69  1  0
 27 70  1  0
 28 71  1  0
 29 72  1  0
 29 73  1  0
 29 74  1  0
M  END
$$$$
