
     RDKit          2D

 51 56  0  0  0  0  0  0  0  0999 V2000
   -4.2553    4.0981    0.0000 F   0  0  0  0  0  0  0  0  0  0  0  0
   -5.5543    3.3481    0.0000 C   0  0  0  0  0  0  0  0  0  0  0  0
   -6.8534    2.5981    0.0000 C   0  0  0  0  0  0  0  0  0  0  0  0
   -6.1034    1.2990    0.0000 C   0  0  0  0  0  0  0  0  0  0  0  0
   -7.4024    0.5490    0.0000 C   0  0  0  0  0  0  0  0  0  0  0  0
   -8.7014   -0.2010    0.0000 C   0  0  0  0  0  0  0  0  0  0  0  0
   -9.8162   -1.2047    0.0000 C   0  0  0  0  0  0  0  0  0  0  0  0
  -11.1152   -0.4547    0.0000 O   0  0  0  0  0  0  0  0  0  0  0  0
  -10.8033    1.0126    0.0000 C   0  0  0  0  0  0  0  0  0  0  0  0
  -10.1932    2.3829    0.0000 C   0  0  0  0  0  0  0  0  0  0  0  0
   -9.3116    1.1694    0.0000 C   0  0  0  0  0  0  0  0  0  0  0  0
   -4.8043    2.0490    0.0000 C   0  0  0  0  0  0  0  0  0  0  0  0
   -4.0543    0.7500    0.0000 C   0  0  0  0  0  0  0  0  0  0  0  0
   -2.9937    1.8107    0.0000 C   0  0  0  0  0  0  0  0  0  0  0  0
   -1.4937    1.8107    0.0000 C   0  0  0  0  0  0  0  0  0  0  0  0
   -0.4330    0.7500    0.0000 C   0  0  0  0  0  0  0  0  0  0  0  0
    0.8660    0.0000    0.0000 C   0  0  0  0  0  0  0  0  0  0  0  0
   -0.4330   -0.7500    0.0000 C   0  0  0  0  0  0  0  0  0  0  0  0
   -1.4937   -1.8107    0.0000 C   0  0  0  0  0  0  0  0  0  0  0  0
   -2.2437   -3.1097    0.0000 C   0  0  0  0  0  0  0  0  0  0  0  0
   -2.9937   -1.8107    0.0000 C   0  0  0  0  0  0  0  0  0  0  0  0
   -4.0543   -0.7500    0.0000 C   0  0  0  0  0  0  0  0  0  0  0  0
   -6.3043    4.6471    0.0000 H   0  0  0  0  0  0  0  0  0  0  0  0
   -7.6034    3.8971    0.0000 H   0  0  0  0  0  0  0  0  0  0  0  0
   -8.1524    1.8481    0.0000 H   0  0  0  0  0  0  0  0  0  0  0  0
   -6.6572    1.8724    0.0000 H   0  0  0  0  0  0  0  0  0  0  0  0
   -8.1524    1.8481    0.0000 H   0  0  0  0  0  0  0  0  0  0  0  0
   -6.6524   -0.7500    0.0000 H   0  0  0  0  0  0  0  0  0  0  0  0
   -7.8198   -1.4145    0.0000 H   0  0  0  0  0  0  0  0  0  0  0  0
   -8.7014   -2.2084    0.0000 H   0  0  0  0  0  0  0  0  0  0  0  0
  -10.6978   -2.4182    0.0000 H   0  0  0  0  0  0  0  0  0  0  0  0
  -12.2299    1.4761    0.0000 H   0  0  0  0  0  0  0  0  0  0  0  0
  -11.4368    3.2217    0.0000 H   0  0  0  0  0  0  0  0  0  0  0  0
   -9.1512    3.4619    0.0000 H   0  0  0  0  0  0  0  0  0  0  0  0
   -8.0125    1.9194    0.0000 H   0  0  0  0  0  0  0  0  0  0  0  0
   -3.6064    2.9518    0.0000 H   0  0  0  0  0  0  0  0  0  0  0  0
   -5.5397    0.5413    0.0000 H   0  0  0  0  0  0  0  0  0  0  0  0
   -2.7850    3.2961    0.0000 H   0  0  0  0  0  0  0  0  0  0  0  0
   -3.9376    2.9765    0.0000 H   0  0  0  0  0  0  0  0  0  0  0  0
   -0.1946    2.5607    0.0000 H   0  0  0  0  0  0  0  0  0  0  0  0
   -1.7024    3.2961    0.0000 H   0  0  0  0  0  0  0  0  0  0  0  0
    0.4801    1.9400    0.0000 H   0  0  0  0  0  0  0  0  0  0  0  0
    1.8302    1.1491    0.0000 H   0  0  0  0  0  0  0  0  0  0  0  0
    1.8302   -1.1491    0.0000 H   0  0  0  0  0  0  0  0  0  0  0  0
    0.4801   -1.9400    0.0000 H   0  0  0  0  0  0  0  0  0  0  0  0
   -0.3036   -2.7238    0.0000 H   0  0  0  0  0  0  0  0  0  0  0  0
   -1.0946   -4.0739    0.0000 H   0  0  0  0  0  0  0  0  0  0  0  0
   -3.3927   -4.0739    0.0000 H   0  0  0  0  0  0  0  0  0  0  0  0
   -4.1837   -2.7238    0.0000 H   0  0  0  0  0  0  0  0  0  0  0  0
   -5.5397   -0.5413    0.0000 H   0  0  0  0  0  0  0  0  0  0  0  0
   -4.8043   -2.0490    0.0000 H   0  0  0  0  0  0  0  0  0  0  0  0
  1  2  1  0
  2  3  1  0
  3  4  1  0
  4  5  1  0
  5  6  1  0
  6  7  1  0
  7  8  1  0
  8  9  1  0
  9 10  1  0
 10 11  1  0
  4 12  1  0
 12 13  1  0
 13 14  1  0
 14 15  1  0
 15 16  1  0
 16 17  1  0
 17 18  1  0
 18 19  1  0
 19 20  1  0
 20 21  1  0
 21 22  1  0
 12  2  1  0
 22 13  1  0
 11  6  1  0
 18 16  1  0
 21 19  1  0
 11  9  1  0
  2 23  1  0
  3 24  1  0
  3 25  1  0
  4 26  1  0
  5 27  1  0
  5 28  1  0
  6 29  1  0
  7 30  1  0
  7 31  1  0
  9 32  1  0
 10 33  1  0
 10 34  1  0
 11 35  1  0
 12 36  1  0
 13 37  1  0
 14 38  1  0
 14 39  1  0
 15 40  1  0
 15 41  1  0
 16 42  1  0
 17 43  1  0
 17 44  1  0
 18 45  1  0
 19 46  1  0
 20 47  1  0
 20 48  1  0
 21 49  1  0
 22 50  1  0
 22 51  1  0
M  END
$$$$
