
     RDKit          2D

 85 92  0  0  0  0  0  0  0  0999 V2000
    4.6309    1.7331    0.0000 C   0  0  0  0  0  0  0  0  0  0  0  0
    3.1820    2.1213    0.0000 C   0  0  0  0  0  0  0  0  0  0  0  0
    2.1213    1.0607    0.0000 C   0  0  0  0  0  0  0  0  0  0  0  0
    1.0607    0.0000    0.0000 C   0  0  0  0  0  0  0  0  0  0  0  0
   -0.0000   -1.0607    0.0000 C   0  0  0  0  0  0  0  0  0  0  0  0
   -1.0607    0.0000    0.0000 C   0  0  0  0  0  0  0  0  0  0  0  0
    0.0000    1.0607    0.0000 C   0  0  0  0  0  0  0  0  0  0  0  0
   -1.0607    2.1213    0.0000 C   0  0  0  0  0  0  0  0  0  0  0  0
   -0.0000    3.1820    0.0000 C   0  0  0  0  0  0  0  0  0  0  0  0
    1.0607    4.2426    0.0000 C   0  0  0  0  0  0  0  0  0  0  0  0
    2.1213    5.3033    0.0000 C   0  0  0  0  0  0  0  0  0  0  0  0
   -2.1213    3.1820    0.0000 C   0  0  0  0  0  0  0  0  0  0  0  0
   -3.1820    4.2426    0.0000 C   0  0  0  0  0  0  0  0  0  0  0  0
   -4.2426    5.3033    0.0000 C   0  0  0  0  0  0  0  0  0  0  0  0
   -4.2426    3.1820    0.0000 C   0  0  0  0  0  0  0  0  0  0  0  0
   -5.3033    2.1213    0.0000 P   0  0  0  0  0  0  0  0  0  0  0  0
   -6.7522    2.5095    0.0000 C   0  0  0  0  0  0  0  0  0  0  0  0
   -8.2011    2.8978    0.0000 C   0  0  0  0  0  0  0  0  0  0  0  0
   -9.6500    3.2860    0.0000 C   0  0  0  0  0  0  0  0  0  0  0  0
  -11.0989    3.6742    0.0000 C   0  0  0  0  0  0  0  0  0  0  0  0
   -7.8128    4.3467    0.0000 C   0  0  0  0  0  0  0  0  0  0  0  0
   -6.6779    6.2267    0.0000 C   0  0  0  0  0  0  0  0  0  0  0  0
   -7.1414    7.6533    0.0000 C   0  0  0  0  0  0  0  0  0  0  0  0
   -5.6742    7.9651    0.0000 C   0  0  0  0  0  0  0  0  0  0  0  0
   -4.2070    8.2770    0.0000 C   0  0  0  0  0  0  0  0  0  0  0  0
   -2.7398    8.5889    0.0000 C   0  0  0  0  0  0  0  0  0  0  0  0
   -4.5188    9.7442    0.0000 C   0  0  0  0  0  0  0  0  0  0  0  0
   -8.6414    7.6533    0.0000 C   0  0  0  0  0  0  0  0  0  0  0  0
   -9.1049    6.2267    0.0000 C   0  0  0  0  0  0  0  0  0  0  0  0
  -10.4753    5.6166    0.0000 C   0  0  0  0  0  0  0  0  0  0  0  0
   -9.2617    4.7349    0.0000 C   0  0  0  0  0  0  0  0  0  0  0  0
   -7.8914    5.3450    0.0000 C   0  0  0  0  0  0  0  0  0  0  0  0
   -3.1820    2.1213    0.0000 C   0  0  0  0  0  0  0  0  0  0  0  0
   -2.1213    1.0607    0.0000 C   0  0  0  0  0  0  0  0  0  0  0  0
    5.6915    2.7938    0.0000 H   0  0  0  0  0  0  0  0  0  0  0  0
    5.0191    0.2842    0.0000 H   0  0  0  0  0  0  0  0  0  0  0  0
    3.1559    3.6211    0.0000 H   0  0  0  0  0  0  0  0  0  0  0  0
    1.5576    1.6243    0.0000 H   0  0  0  0  0  0  0  0  0  0  0  0
    3.1820    0.0000    0.0000 H   0  0  0  0  0  0  0  0  0  0  0  0
    2.1213   -1.0607    0.0000 H   0  0  0  0  0  0  0  0  0  0  0  0
    1.0607   -2.1213    0.0000 H   0  0  0  0  0  0  0  0  0  0  0  0
   -1.0607   -2.1213    0.0000 H   0  0  0  0  0  0  0  0  0  0  0  0
   -2.1213   -1.0607    0.0000 H   0  0  0  0  0  0  0  0  0  0  0  0
    0.5637    1.6243    0.0000 H   0  0  0  0  0  0  0  0  0  0  0  0
   -0.9235    4.3640    0.0000 H   0  0  0  0  0  0  0  0  0  0  0  0
    1.0607    2.1213    0.0000 H   0  0  0  0  0  0  0  0  0  0  0  0
   -0.0000    5.3033    0.0000 H   0  0  0  0  0  0  0  0  0  0  0  0
    2.2427    3.3192    0.0000 H   0  0  0  0  0  0  0  0  0  0  0  0
    3.1820    6.3640    0.0000 H   0  0  0  0  0  0  0  0  0  0  0  0
    1.0607    6.3640    0.0000 H   0  0  0  0  0  0  0  0  0  0  0  0
    3.3034    4.3798    0.0000 H   0  0  0  0  0  0  0  0  0  0  0  0
   -1.1979    4.3640    0.0000 H   0  0  0  0  0  0  0  0  0  0  0  0
   -2.1213    5.3033    0.0000 H   0  0  0  0  0  0  0  0  0  0  0  0
   -5.3033    6.3640    0.0000 H   0  0  0  0  0  0  0  0  0  0  0  0
   -3.0606    6.2268    0.0000 H   0  0  0  0  0  0  0  0  0  0  0  0
   -5.4247    4.3798    0.0000 H   0  0  0  0  0  0  0  0  0  0  0  0
   -5.4247    4.1054    0.0000 H   0  0  0  0  0  0  0  0  0  0  0  0
   -5.0946    0.6359    0.0000 H   0  0  0  0  0  0  0  0  0  0  0  0
   -6.5435    3.9950    0.0000 H   0  0  0  0  0  0  0  0  0  0  0  0
   -7.1404    1.0607    0.0000 H   0  0  0  0  0  0  0  0  0  0  0  0
   -8.5893    1.4489    0.0000 H   0  0  0  0  0  0  0  0  0  0  0  0
  -10.2119    1.8952    0.0000 H   0  0  0  0  0  0  0  0  0  0  0  0
   -9.8587    1.8006    0.0000 H   0  0  0  0  0  0  0  0  0  0  0  0
  -12.5477    4.0625    0.0000 H   0  0  0  0  0  0  0  0  0  0  0  0
  -11.4871    2.2253    0.0000 H   0  0  0  0  0  0  0  0  0  0  0  0
  -11.0728    5.1740    0.0000 H   0  0  0  0  0  0  0  0  0  0  0  0
   -9.3126    4.3728    0.0000 H   0  0  0  0  0  0  0  0  0  0  0  0
   -5.2513    5.7632    0.0000 H   0  0  0  0  0  0  0  0  0  0  0  0
   -7.2982    9.1450    0.0000 H   0  0  0  0  0  0  0  0  0  0  0  0
   -6.1626    9.3834    0.0000 H   0  0  0  0  0  0  0  0  0  0  0  0
   -5.3623    6.4979    0.0000 H   0  0  0  0  0  0  0  0  0  0  0  0
   -3.7186    6.8587    0.0000 H   0  0  0  0  0  0  0  0  0  0  0  0
   -1.2725    8.9007    0.0000 H   0  0  0  0  0  0  0  0  0  0  0  0
   -2.8704   10.0832    0.0000 H   0  0  0  0  0  0  0  0  0  0  0  0
   -2.4279    7.1216    0.0000 H   0  0  0  0  0  0  0  0  0  0  0  0
   -4.8307   11.2114    0.0000 H   0  0  0  0  0  0  0  0  0  0  0  0
   -3.1006   10.2326    0.0000 H   0  0  0  0  0  0  0  0  0  0  0  0
   -6.0131    9.6135    0.0000 H   0  0  0  0  0  0  0  0  0  0  0  0
   -8.4846    9.1450    0.0000 H   0  0  0  0  0  0  0  0  0  0  0  0
  -10.1086    7.9651    0.0000 H   0  0  0  0  0  0  0  0  0  0  0  0
  -11.3141    6.8601    0.0000 H   0  0  0  0  0  0  0  0  0  0  0  0
  -11.5543    4.5746    0.0000 H   0  0  0  0  0  0  0  0  0  0  0  0
   -7.6569    3.8634    0.0000 H   0  0  0  0  0  0  0  0  0  0  0  0
   -4.1054    0.9393    0.0000 H   0  0  0  0  0  0  0  0  0  0  0  0
   -3.1820   -0.0000    0.0000 H   0  0  0  0  0  0  0  0  0  0  0  0
  1  2  2  3
  2  3  1  0
  3  4  1  0
  4  5  1  0
  5  6  1  0
  6  7  1  0
  7  8  1  0
  8  9  1  0
  9 10  1  0
 10 11  1  0
  8 12  1  0
 12 13  1  0
 13 14  1  0
 13 15  1  0
 15 16  1  0
 16 17  1  0
 17 18  1  0
 18 19  1  0
 19 20  1  0
 18 21  1  0
 21 22  1  0
 22 23  1  0
 23 24  1  0
 24 25  1  0
 25 26  1  0
 25 27  1  0
 23 28  1  0
 28 29  1  0
 29 30  1  0
 30 31  1  0
 31 32  1  0
 15 33  1  0
 33 34  1  0
  7  4  1  0
 34  8  1  0
 34  6  1  0
 33 12  1  0
 31 21  1  0
 32 22  1  0
 31 29  1  0
 32 29  1  0
  1 35  1  0
  1 36  1  0
  2 37  1  0
  3 38  1  0
  3 39  1  0
  4 40  1  0
  5 41  1  0
  5 42  1  0
  6 43  1  0
  7 44  1  0
  9 45  1  0
  9 46  1  0
 10 47  1  0
 10 48  1  0
 11 49  1  0
 11 50  1  0
 11 51  1  0
 12 52  1  0
 13 53  1  0
 14 54  1  0
 14 55  1  0
 14 56  1  0
 15 57  1  0
 16 58  1  0
 17 59  1  0
 17 60  1  0
 18 61  1  0
 19 62  1  0
 19 63  1  0
 20 64  1  0
 20 65  1  0
 20 66  1  0
 21 67  1  0
 22 68  1  0
 23 69  1  0
 24 70  1  0
 24 71  1  0
 25 72  1  0
 26 73  1  0
 26 74  1  0
 26 75  1  0
 27 76  1  0
 27 77  1  0
 27 78  1  0
 28 79  1  0
 28 80  1  0
 30 81  1  0
 30 82  1  0
 32 83  1  0
 33 84  1  0
 34 85  1  0
M  END
$$$$
