
     RDKit          2D

 98106  0  0  0  0  0  0  0  0999 V2000
    1.4117   -4.5746    0.0000 C   0  0  0  0  0  0  0  0  0  0  0  0
   -0.0588   -4.8708    0.0000 C   0  0  0  0  0  0  0  0  0  0  0  0
   -0.6835   -6.2345    0.0000 C   0  0  0  0  0  0  0  0  0  0  0  0
   -2.1736   -6.0617    0.0000 C   0  0  0  0  0  0  0  0  0  0  0  0
   -3.6669   -6.2025    0.0000 C   0  0  0  0  0  0  0  0  0  0  0  0
   -2.4697   -4.5912    0.0000 C   0  0  0  0  0  0  0  0  0  0  0  0
   -3.5844   -3.5875    0.0000 C   0  0  0  0  0  0  0  0  0  0  0  0
   -5.0762   -3.4307    0.0000 C   0  0  0  0  0  0  0  0  0  0  0  0
   -6.3752   -2.6807    0.0000 C   0  0  0  0  0  0  0  0  0  0  0  0
   -6.5840   -4.1661    0.0000 C   0  0  0  0  0  0  0  0  0  0  0  0
   -8.0694   -3.9574    0.0000 O   0  0  0  0  0  0  0  0  0  0  0  0
   -6.7928   -5.6516    0.0000 C   0  0  0  0  0  0  0  0  0  0  0  0
   -7.4970   -6.9760    0.0000 C   0  0  0  0  0  0  0  0  0  0  0  0
   -8.2918   -5.7039    0.0000 C   0  0  0  0  0  0  0  0  0  0  0  0
   -9.6826   -6.2658    0.0000 C   0  0  0  0  0  0  0  0  0  0  0  0
  -11.0734   -6.8277    0.0000 C   0  0  0  0  0  0  0  0  0  0  0  0
   -7.2569   -1.4672    0.0000 C   0  0  0  0  0  0  0  0  0  0  0  0
   -7.5688    0.0000    0.0000 C   0  0  0  0  0  0  0  0  0  0  0  0
   -8.8110    1.6718    0.0000 As  0  0  0  0  0  3  0  0  0  0  0  0
   -7.8670    2.8375    0.0000 C   0  0  0  0  0  0  0  0  0  0  0  0
   -7.2569    1.4672    0.0000 C   0  0  0  0  0  0  0  0  0  0  0  0
   -6.3752    2.6807    0.0000 C   0  0  0  0  0  0  0  0  0  0  0  0
   -6.6871    4.1480    0.0000 O   0  0  0  0  0  0  0  0  0  0  0  0
   -5.0762    3.4307    0.0000 C   0  0  0  0  0  0  0  0  0  0  0  0
   -3.5844    3.5875    0.0000 C   0  0  0  0  0  0  0  0  0  0  0  0
   -2.1578    3.1240    0.0000 C   0  0  0  0  0  0  0  0  0  0  0  0
   -1.0431    2.1203    0.0000 C   0  0  0  0  0  0  0  0  0  0  0  0
   -0.4330    0.7500    0.0000 C   0  0  0  0  0  0  0  0  0  0  0  0
   -1.8596    1.2135    0.0000 O   0  0  0  0  0  0  0  0  0  0  0  0
   -2.9743    2.2172    0.0000 C   0  0  0  0  0  0  0  0  0  0  0  0
    0.8660    0.0000    0.0000 C   0  0  0  0  0  0  0  0  0  0  0  0
    1.8302    1.1491    0.0000 C   0  0  0  0  0  0  0  0  0  0  0  0
    2.7944    2.2981    0.0000 C   0  0  0  0  0  0  0  0  0  0  0  0
    3.7586    3.4472    0.0000 C   0  0  0  0  0  0  0  0  0  0  0  0
    3.9435    1.3340    0.0000 C   0  0  0  0  0  0  0  0  0  0  0  0
    5.0925    0.3698    0.0000 C   0  0  0  0  0  0  0  0  0  0  0  0
    6.2416   -0.5944    0.0000 C   0  0  0  0  0  0  0  0  0  0  0  0
   -0.4330   -0.7500    0.0000 C   0  0  0  0  0  0  0  0  0  0  0  0
   -1.0431   -2.1203    0.0000 C   0  0  0  0  0  0  0  0  0  0  0  0
   -0.6549   -3.5692    0.0000 C   0  0  0  0  0  0  0  0  0  0  0  0
   -2.1578   -3.1240    0.0000 C   0  0  0  0  0  0  0  0  0  0  0  0
    2.4034   -5.7000    0.0000 H   0  0  0  0  0  0  0  0  0  0  0  0
    1.8905   -3.1531    0.0000 H   0  0  0  0  0  0  0  0  0  0  0  0
   -1.0111   -7.6983    0.0000 H   0  0  0  0  0  0  0  0  0  0  0  0
    0.7380   -6.7132    0.0000 H   0  0  0  0  0  0  0  0  0  0  0  0
   -2.1896   -7.5616    0.0000 H   0  0  0  0  0  0  0  0  0  0  0  0
   -5.1320   -6.5243    0.0000 H   0  0  0  0  0  0  0  0  0  0  0  0
   -3.9610   -5.3670    0.0000 H   0  0  0  0  0  0  0  0  0  0  0  0
   -3.5261   -7.6959    0.0000 H   0  0  0  0  0  0  0  0  0  0  0  0
   -3.9447   -4.3967    0.0000 H   0  0  0  0  0  0  0  0  0  0  0  0
   -4.9377   -4.3056    0.0000 H   0  0  0  0  0  0  0  0  0  0  0  0
   -5.6215   -4.1287    0.0000 H   0  0  0  0  0  0  0  0  0  0  0  0
   -7.5095   -3.1162    0.0000 H   0  0  0  0  0  0  0  0  0  0  0  0
   -5.5278   -4.4492    0.0000 H   0  0  0  0  0  0  0  0  0  0  0  0
   -8.9929   -5.1394    0.0000 H   0  0  0  0  0  0  0  0  0  0  0  0
   -5.4333   -6.2855    0.0000 H   0  0  0  0  0  0  0  0  0  0  0  0
   -6.3150   -7.8995    0.0000 H   0  0  0  0  0  0  0  0  0  0  0  0
   -8.4810   -8.1081    0.0000 H   0  0  0  0  0  0  0  0  0  0  0  0
   -8.9495   -4.3557    0.0000 H   0  0  0  0  0  0  0  0  0  0  0  0
  -10.2445   -4.8750    0.0000 H   0  0  0  0  0  0  0  0  0  0  0  0
   -9.2944   -7.7147    0.0000 H   0  0  0  0  0  0  0  0  0  0  0  0
  -12.4642   -7.3896    0.0000 H   0  0  0  0  0  0  0  0  0  0  0  0
  -11.6353   -5.4369    0.0000 H   0  0  0  0  0  0  0  0  0  0  0  0
  -10.5115   -8.2185    0.0000 H   0  0  0  0  0  0  0  0  0  0  0  0
   -8.2009   -2.6329    0.0000 H   0  0  0  0  0  0  0  0  0  0  0  0
   -8.7341   -1.2067    0.0000 H   0  0  0  0  0  0  0  0  0  0  0  0
   -9.0688    0.0000    0.0000 H   0  0  0  0  0  0  0  0  0  0  0  0
  -10.3028    1.5150    0.0000 H   0  0  0  0  0  0  0  0  0  0  0  0
   -9.0805    3.7192    0.0000 H   0  0  0  0  0  0  0  0  0  0  0  0
   -5.9579    0.7172    0.0000 H   0  0  0  0  0  0  0  0  0  0  0  0
   -5.5724    5.1517    0.0000 H   0  0  0  0  0  0  0  0  0  0  0  0
   -5.9996    4.6128    0.0000 H   0  0  0  0  0  0  0  0  0  0  0  0
   -4.6627    4.8726    0.0000 H   0  0  0  0  0  0  0  0  0  0  0  0
   -3.4276    5.0793    0.0000 H   0  0  0  0  0  0  0  0  0  0  0  0
   -2.2625    4.6204    0.0000 H   0  0  0  0  0  0  0  0  0  0  0  0
   -0.8999    3.9410    0.0000 H   0  0  0  0  0  0  0  0  0  0  0  0
   -0.3621    3.4568    0.0000 H   0  0  0  0  0  0  0  0  0  0  0  0
    0.4384    2.3550    0.0000 H   0  0  0  0  0  0  0  0  0  0  0  0
   -4.4734    2.1649    0.0000 H   0  0  0  0  0  0  0  0  0  0  0  0
   -3.4873    0.8077    0.0000 H   0  0  0  0  0  0  0  0  0  0  0  0
    1.8302   -1.1491    0.0000 H   0  0  0  0  0  0  0  0  0  0  0  0
    2.8532    0.0520    0.0000 H   0  0  0  0  0  0  0  0  0  0  0  0
    0.8072    2.2461    0.0000 H   0  0  0  0  0  0  0  0  0  0  0  0
    1.6453    3.2623    0.0000 H   0  0  0  0  0  0  0  0  0  0  0  0
    4.7228    4.5963    0.0000 H   0  0  0  0  0  0  0  0  0  0  0  0
    2.6095    4.4114    0.0000 H   0  0  0  0  0  0  0  0  0  0  0  0
    5.0166    2.6303    0.0000 H   0  0  0  0  0  0  0  0  0  0  0  0
    5.0405    2.3569    0.0000 H   0  0  0  0  0  0  0  0  0  0  0  0
    3.1265    0.0759    0.0000 H   0  0  0  0  0  0  0  0  0  0  0  0
    6.0567    1.5188    0.0000 H   0  0  0  0  0  0  0  0  0  0  0  0
    4.1283   -0.7793    0.0000 H   0  0  0  0  0  0  0  0  0  0  0  0
    7.3907   -1.5586    0.0000 H   0  0  0  0  0  0  0  0  0  0  0  0
    5.2774   -1.7435    0.0000 H   0  0  0  0  0  0  0  0  0  0  0  0
    7.2058    0.5547    0.0000 H   0  0  0  0  0  0  0  0  0  0  0  0
    0.6817   -1.7537    0.0000 H   0  0  0  0  0  0  0  0  0  0  0  0
    0.2688   -2.8475    0.0000 H   0  0  0  0  0  0  0  0  0  0  0  0
    0.7796   -3.1307    0.0000 H   0  0  0  0  0  0  0  0  0  0  0  0
   -2.7679   -1.7537    0.0000 H   0  0  0  0  0  0  0  0  0  0  0  0
  1  2  2  3
  2  3  1  0
  3  4  1  0
  4  5  1  0
  4  6  1  0
  6  7  1  0
  7  8  1  0
  8  9  1  0
  9 10  1  0
 10 11  1  0
 10 12  1  0
 12 13  1  0
 13 14  1  0
 14 15  1  0
 15 16  1  0
  9 17  1  0
 17 18  1  0
 18 19  1  0
 19 20  1  0
 20 21  1  0
 21 22  1  0
 22 23  1  0
 22 24  1  0
 24 25  1  0
 25 26  1  0
 26 27  1  0
 27 28  1  0
 28 29  1  0
 29 30  1  0
 28 31  1  0
 31 32  1  0
 32 33  1  0
 33 34  1  0
 33 35  1  0
 35 36  1  0
 36 37  1  0
 31 38  1  0
 38 39  1  0
 39 40  1  0
 39 41  1  0
 40  2  1  0
 40  6  1  0
 41  6  1  0
 41  7  1  0
 14 12  1  0
 21 18  1  0
 30 25  1  0
 22 20  1  0
 38 28  1  0
  1 42  1  0
  1 43  1  0
  3 44  1  0
  3 45  1  0
  4 46  1  0
  5 47  1  0
  5 48  1  0
  5 49  1  0
  7 50  1  0
  8 51  1  0
  8 52  1  0
  9 53  1  0
 10 54  1  0
 11 55  1  0
 12 56  1  0
 13 57  1  0
 13 58  1  0
 14 59  1  0
 15 60  1  0
 15 61  1  0
 16 62  1  0
 16 63  1  0
 16 64  1  0
 17 65  1  0
 17 66  1  0
 18 67  1  0
 19 68  1  0
 20 69  1  0
 21 70  1  0
 23 71  1  0
 24 72  1  0
 24 73  1  0
 25 74  1  0
 26 75  1  0
 26 76  1  0
 27 77  1  0
 27 78  1  0
 30 79  1  0
 30 80  1  0
 31 81  1  0
 32 82  1  0
 32 83  1  0
 33 84  1  0
 34 85  1  0
 34 86  1  0
 34 87  1  0
 35 88  1  0
 35 89  1  0
 36 90  1  0
 36 91  1  0
 37 92  1  0
 37 93  1  0
 37 94  1  0
 38 95  1  0
 39 96  1  0
 40 97  1  0
 41 98  1  0
M  END
$$$$
