
     RDKit          2D

 29 29  0  0  0  0  0  0  0  0999 V2000
    4.2976    0.3872    0.0000 C   0  0  0  0  0  0  0  0  0  0  0  0
    2.9013    0.9352    0.0000 C   0  0  0  0  0  0  0  0  0  0  0  0
    1.7286    0.0000    0.0000 C   0  0  0  0  0  0  0  0  0  0  0  0
    1.0777    1.3515    0.0000 C   0  0  0  0  0  0  0  0  0  0  0  0
   -0.3846    1.6852    0.0000 C   0  0  0  0  0  0  0  0  0  0  0  0
   -1.5574    0.7500    0.0000 C   0  0  0  0  0  0  0  0  0  0  0  0
   -1.5574   -0.7500    0.0000 C   0  0  0  0  0  0  0  0  0  0  0  0
   -0.3846   -1.6852    0.0000 O   0  0  0  0  0  0  0  0  0  0  0  0
    1.0777   -1.3515    0.0000 C   0  0  0  0  0  0  0  0  0  0  0  0
    2.5401   -1.6852    0.0000 C   0  0  0  0  0  0  0  0  0  0  0  0
    4.0025   -2.0190    0.0000 C   0  0  0  0  0  0  0  0  0  0  0  0
    5.4704    1.3225    0.0000 H   0  0  0  0  0  0  0  0  0  0  0  0
    4.7003   -1.0577    0.0000 H   0  0  0  0  0  0  0  0  0  0  0  0
    2.8771    1.8206    0.0000 H   0  0  0  0  0  0  0  0  0  0  0  0
    2.4078   -0.4173    0.0000 H   0  0  0  0  0  0  0  0  0  0  0  0
    1.2606    2.8403    0.0000 H   0  0  0  0  0  0  0  0  0  0  0  0
    1.9108    1.6523    0.0000 H   0  0  0  0  0  0  0  0  0  0  0  0
   -1.4346    2.7564    0.0000 H   0  0  0  0  0  0  0  0  0  0  0  0
    0.0966    3.1059    0.0000 H   0  0  0  0  0  0  0  0  0  0  0  0
   -3.0496    0.5970    0.0000 H   0  0  0  0  0  0  0  0  0  0  0  0
   -2.3681    2.0120    0.0000 H   0  0  0  0  0  0  0  0  0  0  0  0
   -2.2082   -2.1015    0.0000 H   0  0  0  0  0  0  0  0  0  0  0  0
   -3.0496   -0.5970    0.0000 H   0  0  0  0  0  0  0  0  0  0  0  0
    1.0777   -2.8515    0.0000 H   0  0  0  0  0  0  0  0  0  0  0  0
    2.2064   -3.1476    0.0000 H   0  0  0  0  0  0  0  0  0  0  0  0
    2.8109   -0.9355    0.0000 H   0  0  0  0  0  0  0  0  0  0  0  0
    5.4649   -2.3528    0.0000 H   0  0  0  0  0  0  0  0  0  0  0  0
    3.6688   -3.4814    0.0000 H   0  0  0  0  0  0  0  0  0  0  0  0
    4.5121   -0.6082    0.0000 H   0  0  0  0  0  0  0  0  0  0  0  0
  1  2  2  3
  2  3  1  0
  3  4  1  0
  4  5  1  0
  5  6  1  0
  6  7  1  0
  7  8  1  0
  8  9  1  0
  9 10  1  0
 10 11  1  0
  9  3  1  0
  1 12  1  0
  1 13  1  0
  2 14  1  0
  3 15  1  0
  4 16  1  0
  4 17  1  0
  5 18  1  0
  5 19  1  0
  6 20  1  0
  6 21  1  0
  7 22  1  0
  7 23  1  0
  9 24  1  0
 10 25  1  0
 10 26  1  0
 11 27  1  0
 11 28  1  0
 11 29  1  0
M  END
$$$$
