
     RDKit          2D

 75 82  0  0  0  0  0  0  0  0999 V2000
  -11.2479  -13.8343    0.0000 C   0  0  0  0  0  0  0  0  0  0  0  0
  -10.6999  -12.4380    0.0000 C   0  0  0  0  0  0  0  0  0  0  0  0
  -10.1519  -11.0417    0.0000 C   0  0  0  0  0  0  0  0  0  0  0  0
   -9.6039   -9.6453    0.0000 C   0  0  0  0  0  0  0  0  0  0  0  0
   -9.0558   -8.2490    0.0000 C   0  0  0  0  0  0  0  0  0  0  0  0
   -7.5856   -8.5463    0.0000 C   0  0  0  0  0  0  0  0  0  0  0  0
   -6.5931   -7.4216    0.0000 C   0  0  0  0  0  0  0  0  0  0  0  0
   -6.0450   -6.0253    0.0000 C   0  0  0  0  0  0  0  0  0  0  0  0
   -5.4970   -4.6290    0.0000 C   0  0  0  0  0  0  0  0  0  0  0  0
   -4.9490   -3.2327    0.0000 C   0  0  0  0  0  0  0  0  0  0  0  0
   -3.9565   -2.1080    0.0000 C   0  0  0  0  0  0  0  0  0  0  0  0
   -4.8917   -0.9352    0.0000 C   0  0  0  0  0  0  0  0  0  0  0  0
   -5.8270    0.2375    0.0000 C   0  0  0  0  0  0  0  0  0  0  0  0
   -6.7622    1.4103    0.0000 C   0  0  0  0  0  0  0  0  0  0  0  0
   -6.2142    2.8066    0.0000 C   0  0  0  0  0  0  0  0  0  0  0  0
   -7.6974    2.5830    0.0000 C   0  0  0  0  0  0  0  0  0  0  0  0
   -9.1807    2.3594    0.0000 N   0  0  0  0  0  0  0  0  0  0  0  0
   -8.2454    1.1867    0.0000 C   0  0  0  0  0  0  0  0  0  0  0  0
   -3.7190    0.0000    0.0000 C   0  0  0  0  0  0  0  0  0  0  0  0
   -3.0682    1.3515    0.0000 C   0  0  0  0  0  0  0  0  0  0  0  0
   -1.6058    1.6852    0.0000 C   0  0  0  0  0  0  0  0  0  0  0  0
   -0.4330    0.7500    0.0000 C   0  0  0  0  0  0  0  0  0  0  0  0
    0.4120    1.9894    0.0000 F   0  0  0  0  0  0  0  0  0  0  0  0
    0.8660    0.0000    0.0000 N   0  0  0  0  0  0  0  0  0  0  0  0
   -0.4330   -0.7500    0.0000 C   0  0  0  0  0  0  0  0  0  0  0  0
   -1.6058   -1.6852    0.0000 N   0  0  0  0  0  0  0  0  0  0  0  0
   -1.2720   -3.1476    0.0000 C   0  0  0  0  0  0  0  0  0  0  0  0
   -3.0682   -1.3515    0.0000 C   0  0  0  0  0  0  0  0  0  0  0  0
   -3.4788   -3.5299    0.0000 N   0  0  0  0  0  0  0  0  0  0  0  0
   -2.3541   -4.5224    0.0000 C   0  0  0  0  0  0  0  0  0  0  0  0
   -1.2294   -5.5149    0.0000 C   0  0  0  0  0  0  0  0  0  0  0  0
   -0.1047   -6.5075    0.0000 Br  0  0  0  0  0  0  0  0  0  0  0  0
   -8.0633   -7.1244    0.0000 C   0  0  0  0  0  0  0  0  0  0  0  0
  -11.7959  -15.2306    0.0000 H   0  0  0  0  0  0  0  0  0  0  0  0
  -12.6442  -13.2863    0.0000 H   0  0  0  0  0  0  0  0  0  0  0  0
   -9.8516  -14.3823    0.0000 H   0  0  0  0  0  0  0  0  0  0  0  0
  -12.0962  -11.8900    0.0000 H   0  0  0  0  0  0  0  0  0  0  0  0
   -9.3036  -12.9860    0.0000 H   0  0  0  0  0  0  0  0  0  0  0  0
   -8.7556  -11.5897    0.0000 H   0  0  0  0  0  0  0  0  0  0  0  0
  -11.5482  -10.4936    0.0000 H   0  0  0  0  0  0  0  0  0  0  0  0
   -8.2075  -10.1934    0.0000 H   0  0  0  0  0  0  0  0  0  0  0  0
  -11.0002   -9.0973    0.0000 H   0  0  0  0  0  0  0  0  0  0  0  0
  -10.3358   -7.4669    0.0000 H   0  0  0  0  0  0  0  0  0  0  0  0
   -7.1079   -9.9681    0.0000 H   0  0  0  0  0  0  0  0  0  0  0  0
   -5.3131   -8.2037    0.0000 H   0  0  0  0  0  0  0  0  0  0  0  0
   -7.4414   -5.4773    0.0000 H   0  0  0  0  0  0  0  0  0  0  0  0
   -4.6487   -6.5733    0.0000 H   0  0  0  0  0  0  0  0  0  0  0  0
   -4.1779   -5.3431    0.0000 H   0  0  0  0  0  0  0  0  0  0  0  0
   -6.8933   -4.0810    0.0000 H   0  0  0  0  0  0  0  0  0  0  0  0
   -6.3148   -2.6124    0.0000 H   0  0  0  0  0  0  0  0  0  0  0  0
   -3.1850   -1.9075    0.0000 H   0  0  0  0  0  0  0  0  0  0  0  0
   -6.1697   -1.7205    0.0000 H   0  0  0  0  0  0  0  0  0  0  0  0
   -6.9997   -0.6977    0.0000 H   0  0  0  0  0  0  0  0  0  0  0  0
   -4.9154    1.4287    0.0000 H   0  0  0  0  0  0  0  0  0  0  0  0
   -4.7911    2.3323    0.0000 H   0  0  0  0  0  0  0  0  0  0  0  0
   -6.1768    4.3061    0.0000 H   0  0  0  0  0  0  0  0  0  0  0  0
  -10.5770    2.9075    0.0000 H   0  0  0  0  0  0  0  0  0  0  0  0
   -8.7935   -0.2096    0.0000 H   0  0  0  0  0  0  0  0  0  0  0  0
   -4.8917    0.9352    0.0000 H   0  0  0  0  0  0  0  0  0  0  0  0
   -4.4790    1.8610    0.0000 H   0  0  0  0  0  0  0  0  0  0  0  0
   -3.2510    2.8403    0.0000 H   0  0  0  0  0  0  0  0  0  0  0  0
   -2.0870    3.1059    0.0000 H   0  0  0  0  0  0  0  0  0  0  0  0
   -0.4330    2.6205    0.0000 H   0  0  0  0  0  0  0  0  0  0  0  0
    2.3660    0.0000    0.0000 H   0  0  0  0  0  0  0  0  0  0  0  0
    0.5567   -1.8771    0.0000 H   0  0  0  0  0  0  0  0  0  0  0  0
   -0.7624   -4.5584    0.0000 H   0  0  0  0  0  0  0  0  0  0  0  0
   -2.5176   -3.9834    0.0000 H   0  0  0  0  0  0  0  0  0  0  0  0
    0.2202   -2.9946    0.0000 H   0  0  0  0  0  0  0  0  0  0  0  0
   -2.8853   -2.8403    0.0000 H   0  0  0  0  0  0  0  0  0  0  0  0
   -4.4063   -2.0292    0.0000 H   0  0  0  0  0  0  0  0  0  0  0  0
   -1.1189   -3.6713    0.0000 H   0  0  0  0  0  0  0  0  0  0  0  0
   -3.2021   -5.7597    0.0000 H   0  0  0  0  0  0  0  0  0  0  0  0
   -2.2219   -6.6396    0.0000 H   0  0  0  0  0  0  0  0  0  0  0  0
   -0.1072   -4.5196    0.0000 H   0  0  0  0  0  0  0  0  0  0  0  0
   -8.5410   -5.7025    0.0000 H   0  0  0  0  0  0  0  0  0  0  0  0
  1  2  1  0
  2  3  1  0
  3  4  1  0
  4  5  1  0
  5  6  1  0
  6  7  1  0
  7  8  1  0
  8  9  1  0
  9 10  1  0
 10 11  1  0
 11 12  1  0
 12 13  1  0
 13 14  1  0
 14 15  1  0
 15 16  1  0
 16 17  1  0
 17 18  1  0
 12 19  1  0
 19 20  1  0
 20 21  1  0
 21 22  1  0
 22 23  1  0
 22 24  1  0
 24 25  1  0
 25 26  1  0
 26 27  1  0
 26 28  1  0
 11 29  1  0
 29 30  1  0
 30 31  1  0
 31 32  1  0
  7 33  1  0
 33  5  1  0
 33  6  1  0
 29 10  1  0
 16 14  1  0
 28 19  1  0
 18 14  1  0
 25 22  1  0
 18 16  1  0
  1 34  1  0
  1 35  1  0
  1 36  1  0
  2 37  1  0
  2 38  1  0
  3 39  1  0
  3 40  1  0
  4 41  1  0
  4 42  1  0
  5 43  1  0
  6 44  1  0
  7 45  1  0
  8 46  1  0
  8 47  1  0
  9 48  1  0
  9 49  1  0
 10 50  1  0
 11 51  1  0
 12 52  1  0
 13 53  1  0
 13 54  1  0
 15 55  1  0
 15 56  1  0
 17 57  1  0
 18 58  1  0
 19 59  1  0
 20 60  1  0
 20 61  1  0
 21 62  1  0
 21 63  1  0
 24 64  1  0
 25 65  1  0
 27 66  1  0
 27 67  1  0
 27 68  1  0
 28 69  1  0
 28 70  1  0
 30 71  1  0
 30 72  1  0
 31 73  1  0
 31 74  1  0
 33 75  1  0
M  END
$$$$
