
     RDKit          2D

106116  0  0  0  0  0  0  0  0999 V2000
   -2.5936    6.6685    0.0000 C   0  0  0  0  0  0  0  0  0  0  0  0
   -1.2422    7.3193    0.0000 C   0  0  0  0  0  0  0  0  0  0  0  0
   -0.7468    8.7352    0.0000 C   0  0  0  0  0  0  0  0  0  0  0  0
    0.6691    8.2398    0.0000 C   0  0  0  0  0  0  0  0  0  0  0  0
    2.0849    7.7443    0.0000 C   0  0  0  0  0  0  0  0  0  0  0  0
    0.9728    7.6091    0.0000 C   0  0  0  0  0  0  0  0  0  0  0  0
   -0.7468    8.7352    0.0000 C   0  0  0  0  0  0  0  0  0  0  0  0
   -2.1626    9.2306    0.0000 C   0  0  0  0  0  0  0  0  0  0  0  0
    0.1736    6.8239    0.0000 C   0  0  0  0  0  0  0  0  0  0  0  0
    1.5895    6.3285    0.0000 C   0  0  0  0  0  0  0  0  0  0  0  0
    2.8288    5.4835    0.0000 C   0  0  0  0  0  0  0  0  0  0  0  0
    3.8762    6.5573    0.0000 C   0  0  0  0  0  0  0  0  0  0  0  0
    3.1101    7.8469    0.0000 C   0  0  0  0  0  0  0  0  0  0  0  0
    1.7070    7.3164    0.0000 C   0  0  0  0  0  0  0  0  0  0  0  0
    0.3040    6.7858    0.0000 C   0  0  0  0  0  0  0  0  0  0  0  0
   -1.0990    6.2552    0.0000 C   0  0  0  0  0  0  0  0  0  0  0  0
   -2.5021    5.7247    0.0000 C   0  0  0  0  0  0  0  0  0  0  0  0
    0.8345    5.3828    0.0000 C   0  0  0  0  0  0  0  0  0  0  0  0
    1.3651    3.9797    0.0000 C   0  0  0  0  0  0  0  0  0  0  0  0
    1.8957    2.5767    0.0000 C   0  0  0  0  0  0  0  0  0  0  0  0
   -0.5685    4.8522    0.0000 C   0  0  0  0  0  0  0  0  0  0  0  0
   -1.9715    4.3216    0.0000 C   0  0  0  0  0  0  0  0  0  0  0  0
   -0.0379    3.4492    0.0000 C   0  0  0  0  0  0  0  0  0  0  0  0
   -0.0192    1.9493    0.0000 C   0  0  0  0  0  0  0  0  0  0  0  0
   -1.3275    2.6830    0.0000 S   0  0  0  0  0  0  0  0  0  0  0  0
    4.6099    7.8656    0.0000 C   0  0  0  0  0  0  0  0  0  0  0  0
    5.9182    7.1319    0.0000 C   0  0  0  0  0  0  0  0  0  0  0  0
    5.1845    5.8236    0.0000 N   0  0  0  0  0  0  0  0  0  0  0  0
    5.5907    4.3796    0.0000 C   0  0  0  0  0  0  0  0  0  0  0  0
    5.9970    2.9357    0.0000 C   0  0  0  0  0  0  0  0  0  0  0  0
    1.4774    4.8327    0.0000 C   0  0  0  0  0  0  0  0  0  0  0  0
    2.2274    3.5337    0.0000 C   0  0  0  0  0  0  0  0  0  0  0  0
    1.6794    2.1374    0.0000 N   0  0  0  0  0  0  0  0  0  0  0  0
    2.6996    1.0378    0.0000 C   0  0  0  0  0  0  0  0  0  0  0  0
   -0.0448    2.1989    0.0000 C   0  0  0  0  0  0  0  0  0  0  0  0
    0.3434    3.6478    0.0000 C   0  0  0  0  0  0  0  0  0  0  0  0
    1.6016    4.4645    0.0000 Cl  0  0  0  0  0  0  0  0  0  0  0  0
   -1.1054    4.0360    0.0000 C   0  0  0  0  0  0  0  0  0  0  0  0
   -0.0059    5.0563    0.0000 C   0  0  0  0  0  0  0  0  0  0  0  0
   -1.2452    5.9012    0.0000 C   0  0  0  0  0  0  0  0  0  0  0  0
   -1.4937    2.5871    0.0000 C   0  0  0  0  0  0  0  0  0  0  0  0
   -1.8819    1.1382    0.0000 C   0  0  0  0  0  0  0  0  0  0  0  0
   -0.4330    0.7500    0.0000 C   0  0  0  0  0  0  0  0  0  0  0  0
    0.8660    0.0000    0.0000 C   0  0  0  0  0  0  0  0  0  0  0  0
   -0.4330   -0.7500    0.0000 C   0  0  0  0  0  0  0  0  0  0  0  0
   -3.5917    7.7883    0.0000 H   0  0  0  0  0  0  0  0  0  0  0  0
   -3.5436    5.5076    0.0000 H   0  0  0  0  0  0  0  0  0  0  0  0
   -2.2404    8.8733    0.0000 H   0  0  0  0  0  0  0  0  0  0  0  0
   -0.4276   10.2008    0.0000 H   0  0  0  0  0  0  0  0  0  0  0  0
    0.9882    9.7054    0.0000 H   0  0  0  0  0  0  0  0  0  0  0  0
    3.2387    8.7028    0.0000 H   0  0  0  0  0  0  0  0  0  0  0  0
    1.3334    9.5846    0.0000 H   0  0  0  0  0  0  0  0  0  0  0  0
   -0.0824   10.0800    0.0000 H   0  0  0  0  0  0  0  0  0  0  0  0
   -1.8490    7.7178    0.0000 H   0  0  0  0  0  0  0  0  0  0  0  0
   -3.5784    9.7260    0.0000 H   0  0  0  0  0  0  0  0  0  0  0  0
   -1.6672   10.6464    0.0000 H   0  0  0  0  0  0  0  0  0  0  0  0
   -2.9859    7.9767    0.0000 H   0  0  0  0  0  0  0  0  0  0  0  0
    3.7044    4.2656    0.0000 H   0  0  0  0  0  0  0  0  0  0  0  0
    2.8312    9.3208    0.0000 H   0  0  0  0  0  0  0  0  0  0  0  0
    1.6994    5.8164    0.0000 H   0  0  0  0  0  0  0  0  0  0  0  0
    0.5798    8.3060    0.0000 H   0  0  0  0  0  0  0  0  0  0  0  0
   -0.2266    8.1888    0.0000 H   0  0  0  0  0  0  0  0  0  0  0  0
   -1.2894    4.7674    0.0000 H   0  0  0  0  0  0  0  0  0  0  0  0
   -2.0973    7.3749    0.0000 H   0  0  0  0  0  0  0  0  0  0  0  0
   -3.9051    5.1941    0.0000 H   0  0  0  0  0  0  0  0  0  0  0  0
   -3.6293    6.7143    0.0000 H   0  0  0  0  0  0  0  0  0  0  0  0
   -3.8353    6.4121    0.0000 H   0  0  0  0  0  0  0  0  0  0  0  0
    1.9542    6.3810    0.0000 H   0  0  0  0  0  0  0  0  0  0  0  0
    0.3755    2.8525    0.0000 H   0  0  0  0  0  0  0  0  0  0  0  0
    2.6930    4.6774    0.0000 H   0  0  0  0  0  0  0  0  0  0  0  0
    2.8939    1.4571    0.0000 H   0  0  0  0  0  0  0  0  0  0  0  0
    3.3529    2.9323    0.0000 H   0  0  0  0  0  0  0  0  0  0  0  0
    0.4926    2.0461    0.0000 H   0  0  0  0  0  0  0  0  0  0  0  0
   -1.6957    5.8418    0.0000 H   0  0  0  0  0  0  0  0  0  0  0  0
   -3.3746    3.7911    0.0000 H   0  0  0  0  0  0  0  0  0  0  0  0
   -2.1619    2.8338    0.0000 H   0  0  0  0  0  0  0  0  0  0  0  0
   -3.0988    5.3112    0.0000 H   0  0  0  0  0  0  0  0  0  0  0  0
    1.4379    3.1812    0.0000 H   0  0  0  0  0  0  0  0  0  0  0  0
    1.4206    1.5286    0.0000 H   0  0  0  0  0  0  0  0  0  0  0  0
   -0.1573    0.4556    0.0000 H   0  0  0  0  0  0  0  0  0  0  0  0
    4.9801    9.3192    0.0000 H   0  0  0  0  0  0  0  0  0  0  0  0
    7.2265    6.3981    0.0000 H   0  0  0  0  0  0  0  0  0  0  0  0
    6.6520    8.4402    0.0000 H   0  0  0  0  0  0  0  0  0  0  0  0
    4.2071    3.8004    0.0000 H   0  0  0  0  0  0  0  0  0  0  0  0
    7.0347    4.7859    0.0000 H   0  0  0  0  0  0  0  0  0  0  0  0
    6.4033    1.4918    0.0000 H   0  0  0  0  0  0  0  0  0  0  0  0
    7.4409    3.3420    0.0000 H   0  0  0  0  0  0  0  0  0  0  0  0
    4.5143    2.7085    0.0000 H   0  0  0  0  0  0  0  0  0  0  0  0
    3.5412    4.2575    0.0000 H   0  0  0  0  0  0  0  0  0  0  0  0
    3.6344    3.0137    0.0000 H   0  0  0  0  0  0  0  0  0  0  0  0
    3.7199   -0.0618    0.0000 H   0  0  0  0  0  0  0  0  0  0  0  0
    1.8796   -0.2182    0.0000 H   0  0  0  0  0  0  0  0  0  0  0  0
    3.7992    2.0580    0.0000 H   0  0  0  0  0  0  0  0  0  0  0  0
    1.8289    3.4391    0.0000 H   0  0  0  0  0  0  0  0  0  0  0  0
   -2.2712    4.9799    0.0000 H   0  0  0  0  0  0  0  0  0  0  0  0
   -0.1777    6.5464    0.0000 H   0  0  0  0  0  0  0  0  0  0  0  0
   -2.4846    6.7462    0.0000 H   0  0  0  0  0  0  0  0  0  0  0  0
   -2.3650    4.9032    0.0000 H   0  0  0  0  0  0  0  0  0  0  0  0
   -1.2641    7.4011    0.0000 H   0  0  0  0  0  0  0  0  0  0  0  0
   -2.9426    2.9753    0.0000 H   0  0  0  0  0  0  0  0  0  0  0  0
   -2.4438   -0.2525    0.0000 H   0  0  0  0  0  0  0  0  0  0  0  0
   -3.3308    1.5265    0.0000 H   0  0  0  0  0  0  0  0  0  0  0  0
    2.0796    0.8816    0.0000 H   0  0  0  0  0  0  0  0  0  0  0  0
    1.8302   -1.1491    0.0000 H   0  0  0  0  0  0  0  0  0  0  0  0
    0.0800   -2.1595    0.0000 H   0  0  0  0  0  0  0  0  0  0  0  0
   -1.8675   -1.1886    0.0000 H   0  0  0  0  0  0  0  0  0  0  0  0
  1  2  2  3
  2  3  1  0
  3  4  1  0
  4  5  1  0
  5  6  1  0
  6  7  1  0
  7  8  1  0
  6  9  1  0
  9 10  1  0
 10 11  1  0
 11 12  1  0
 12 13  1  0
 13 14  1  0
 14 15  1  0
 15 16  1  0
 16 17  1  0
 15 18  1  0
 18 19  1  0
 19 20  1  0
 18 21  1  0
 21 22  1  0
 21 23  1  0
 23 24  1  0
 24 25  1  0
 13 26  1  0
 26 27  1  0
 27 28  1  0
 28 29  1  0
 29 30  1  0
 11 31  1  0
 31 32  1  0
 32 33  1  0
 33 34  1  0
 33 35  1  0
 35 36  1  0
 36 37  1  0
 36 38  1  0
 38 39  1  0
 39 40  1  0
 38 41  1  0
 41 42  1  0
 42 43  1  0
 43 44  1  0
 44 45  1  0
  9  2  1  0
 31 10  1  0
 41 35  1  0
 45 43  1  0
  9  4  1  0
 26 12  1  0
 39 31  1  0
 10  5  1  0
 28 12  1  0
 43 35  1  0
 25 23  1  0
  1 46  1  0
  1 47  1  0
  3 48  1  0
  3 49  1  0
  4 50  1  0
  5 51  1  0
  6 52  1  0
  7 53  1  0
  7 54  1  0
  8 55  1  0
  8 56  1  0
  8 57  1  0
 11 58  1  0
 13 59  1  0
 14 60  1  0
 14 61  1  0
 15 62  1  0
 16 63  1  0
 16 64  1  0
 17 65  1  0
 17 66  1  0
 17 67  1  0
 18 68  1  0
 19 69  1  0
 19 70  1  0
 20 71  1  0
 20 72  1  0
 20 73  1  0
 21 74  1  0
 22 75  1  0
 22 76  1  0
 22 77  1  0
 23 78  1  0
 24 79  1  0
 24 80  1  0
 26 81  1  0
 27 82  1  0
 27 83  1  0
 29 84  1  0
 29 85  1  0
 30 86  1  0
 30 87  1  0
 30 88  1  0
 32 89  1  0
 32 90  1  0
 34 91  1  0
 34 92  1  0
 34 93  1  0
 36 94  1  0
 38 95  1  0
 39 96  1  0
 40 97  1  0
 40 98  1  0
 40 99  1  0
 41100  1  0
 42101  1  0
 42102  1  0
 44103  1  0
 44104  1  0
 45105  1  0
 45106  1  0
M  END
$$$$
