
     RDKit          2D

 64 71  0  0  0  0  0  0  0  0999 V2000
   -6.3204   -5.4681    0.0000 C   0  0  0  0  0  0  0  0  0  0  0  0
   -5.0213   -4.7181    0.0000 C   0  0  0  0  0  0  0  0  0  0  0  0
   -3.7223   -3.9681    0.0000 C   0  0  0  0  0  0  0  0  0  0  0  0
   -2.2451   -3.7077    0.0000 C   0  0  0  0  0  0  0  0  0  0  0  0
   -1.7321   -2.2981    0.0000 C   0  0  0  0  0  0  0  0  0  0  0  0
   -3.2093   -2.5586    0.0000 N   0  0  0  0  0  0  0  0  0  0  0  0
   -4.1734   -1.4095    0.0000 C   0  0  0  0  0  0  0  0  0  0  0  0
   -2.6962   -1.1491    0.0000 C   0  0  0  0  0  0  0  0  0  0  0  0
   -1.7321    0.0000    0.0000 C   0  0  0  0  0  0  0  0  0  0  0  0
   -1.7321    1.5000    0.0000 C   0  0  0  0  0  0  0  0  0  0  0  0
   -2.6962    2.6491    0.0000 C   0  0  0  0  0  0  0  0  0  0  0  0
   -4.1734    2.9095    0.0000 C   0  0  0  0  0  0  0  0  0  0  0  0
   -5.4725    2.1595    0.0000 C   0  0  0  0  0  0  0  0  0  0  0  0
   -5.9855    0.7500    0.0000 C   0  0  0  0  0  0  0  0  0  0  0  0
   -5.4725   -0.6595    0.0000 C   0  0  0  0  0  0  0  0  0  0  0  0
   -6.9699   -0.7468    0.0000 C   0  0  0  0  0  0  0  0  0  0  0  0
   -8.3473   -1.3409    0.0000 C   0  0  0  0  0  0  0  0  0  0  0  0
   -7.1441   -2.2366    0.0000 C   0  0  0  0  0  0  0  0  0  0  0  0
   -7.8173   -3.5771    0.0000 C   0  0  0  0  0  0  0  0  0  0  0  0
   -8.4905   -4.9175    0.0000 N   0  0  0  0  0  0  0  0  0  0  0  0
   -9.9879   -5.0047    0.0000 C   0  0  0  0  0  0  0  0  0  0  0  0
   -3.2093    4.0586    0.0000 C   0  0  0  0  0  0  0  0  0  0  0  0
   -4.1734    5.2077    0.0000 C   0  0  0  0  0  0  0  0  0  0  0  0
   -1.9102    4.8086    0.0000 C   0  0  0  0  0  0  0  0  0  0  0  0
   -0.4330    0.7500    0.0000 C   0  0  0  0  0  0  0  0  0  0  0  0
    0.8660    0.0000    0.0000 O   0  0  0  0  0  0  0  0  0  0  0  0
   -0.4330   -0.7500    0.0000 C   0  0  0  0  0  0  0  0  0  0  0  0
   -4.6865   -2.8191    0.0000 O   0  0  0  0  0  0  0  0  0  0  0  0
   -7.5183   -6.3709    0.0000 H   0  0  0  0  0  0  0  0  0  0  0  0
   -5.5704   -6.7672    0.0000 H   0  0  0  0  0  0  0  0  0  0  0  0
   -6.9064   -4.0874    0.0000 H   0  0  0  0  0  0  0  0  0  0  0  0
   -5.6074   -3.3374    0.0000 H   0  0  0  0  0  0  0  0  0  0  0  0
   -4.2713   -6.0172    0.0000 H   0  0  0  0  0  0  0  0  0  0  0  0
   -3.2093   -5.3777    0.0000 H   0  0  0  0  0  0  0  0  0  0  0  0
   -2.2451   -5.2077    0.0000 H   0  0  0  0  0  0  0  0  0  0  0  0
   -1.0832   -4.0629    0.0000 H   0  0  0  0  0  0  0  0  0  0  0  0
   -0.8434   -3.1267    0.0000 H   0  0  0  0  0  0  0  0  0  0  0  0
   -3.6551   -3.2195    0.0000 H   0  0  0  0  0  0  0  0  0  0  0  0
   -2.5047   -2.6368    0.0000 H   0  0  0  0  0  0  0  0  0  0  0  0
   -1.2161   -1.3923    0.0000 H   0  0  0  0  0  0  0  0  0  0  0  0
   -0.7679    2.6491    0.0000 H   0  0  0  0  0  0  0  0  0  0  0  0
   -1.3155    3.2351    0.0000 H   0  0  0  0  0  0  0  0  0  0  0  0
   -5.1376    4.0586    0.0000 H   0  0  0  0  0  0  0  0  0  0  0  0
   -6.1613    3.4920    0.0000 H   0  0  0  0  0  0  0  0  0  0  0  0
   -6.9481    2.4286    0.0000 H   0  0  0  0  0  0  0  0  0  0  0  0
   -7.2889    1.4924    0.0000 H   0  0  0  0  0  0  0  0  0  0  0  0
   -7.4298    0.3451    0.0000 H   0  0  0  0  0  0  0  0  0  0  0  0
   -5.6379   -2.1504    0.0000 H   0  0  0  0  0  0  0  0  0  0  0  0
   -7.4912    0.6598    0.0000 H   0  0  0  0  0  0  0  0  0  0  0  0
   -9.1715   -0.0876    0.0000 H   0  0  0  0  0  0  0  0  0  0  0  0
   -9.5557   -2.2296    0.0000 H   0  0  0  0  0  0  0  0  0  0  0  0
   -5.7071   -2.6668    0.0000 H   0  0  0  0  0  0  0  0  0  0  0  0
   -9.2298   -3.0723    0.0000 H   0  0  0  0  0  0  0  0  0  0  0  0
   -6.4048   -4.0818    0.0000 H   0  0  0  0  0  0  0  0  0  0  0  0
   -7.8251   -6.2619    0.0000 H   0  0  0  0  0  0  0  0  0  0  0  0
  -11.4854   -5.0919    0.0000 H   0  0  0  0  0  0  0  0  0  0  0  0
   -9.9007   -6.5022    0.0000 H   0  0  0  0  0  0  0  0  0  0  0  0
  -10.0752   -3.5073    0.0000 H   0  0  0  0  0  0  0  0  0  0  0  0
   -5.1376    6.3567    0.0000 H   0  0  0  0  0  0  0  0  0  0  0  0
   -3.1505    6.3047    0.0000 H   0  0  0  0  0  0  0  0  0  0  0  0
   -5.5217    4.5502    0.0000 H   0  0  0  0  0  0  0  0  0  0  0  0
   -0.6112    5.5586    0.0000 H   0  0  0  0  0  0  0  0  0  0  0  0
   -2.4963    6.1894    0.0000 H   0  0  0  0  0  0  0  0  0  0  0  0
   -1.0075    3.6107    0.0000 H   0  0  0  0  0  0  0  0  0  0  0  0
  1  2  1  0
  2  3  1  0
  3  4  1  0
  4  5  1  0
  5  6  1  0
  6  7  1  0
  7  8  1  0
  9  8  1  1
  9 10  1  0
 10 11  1  0
 11 12  1  0
 12 13  1  0
 13 14  1  0
 14 15  1  0
 15 16  1  0
 16 17  1  0
 17 18  1  0
 18 19  1  0
 19 20  1  0
 20 21  1  0
 12 22  1  0
 22 23  1  0
 22 24  1  0
 10 25  1  0
 25 26  1  1
 27 26  1  1
  7 28  1  6
 28  3  1  0
 27  5  1  0
 15  7  1  0
 18 16  1  0
 27 25  1  0
 25  9  1  0
 27  9  1  0
 22 11  1  0
  1 29  1  0
  1 30  1  0
  1 31  1  0
  2 32  1  0
  2 33  1  0
  3 34  1  1
  4 35  1  0
  4 36  1  0
  5 37  1  1
  6 38  1  0
  8 39  1  0
  8 40  1  0
 10 41  1  6
 11 42  1  1
 12 43  1  6
 13 44  1  0
 13 45  1  0
 14 46  1  0
 14 47  1  0
 15 48  1  1
 16 49  1  6
 17 50  1  0
 17 51  1  0
 18 52  1  6
 19 53  1  0
 19 54  1  0
 20 55  1  0
 21 56  1  0
 21 57  1  0
 21 58  1  0
 23 59  1  0
 23 60  1  0
 23 61  1  0
 24 62  1  0
 24 63  1  0
 24 64  1  0
M  END
$$$$
