
     RDKit          2D

 43 48  0  0  0  0  0  0  0  0999 V2000
    6.0837    1.3781    0.0000 C   0  0  0  0  0  0  0  0  0  0  0  0
    4.7846    2.1281    0.0000 C   0  0  0  0  0  0  0  0  0  0  0  0
    3.8204    0.9791    0.0000 C   0  0  0  0  0  0  0  0  0  0  0  0
    3.3074    2.3886    0.0000 C   0  0  0  0  0  0  0  0  0  0  0  0
    1.8302    2.1281    0.0000 O   0  0  0  0  0  0  0  0  0  0  0  0
    3.3074    3.8886    0.0000 C   0  0  0  0  0  0  0  0  0  0  0  0
    2.7944    5.2981    0.0000 C   0  0  0  0  0  0  0  0  0  0  0  0
    4.0934    6.0481    0.0000 C   0  0  0  0  0  0  0  0  0  0  0  0
    1.8302    4.1491    0.0000 C   0  0  0  0  0  0  0  0  0  0  0  0
    0.3530    4.4095    0.0000 C   0  0  0  0  0  0  0  0  0  0  0  0
    0.8660    3.0000    0.0000 C   0  0  0  0  0  0  0  0  0  0  0  0
   -0.4330    2.2500    0.0000 O   0  0  0  0  0  0  0  0  0  0  0  0
   -0.4330    0.7500    0.0000 C   0  0  0  0  0  0  0  0  0  0  0  0
    0.8660    0.0000    0.0000 O   0  0  0  0  0  0  0  0  0  0  0  0
   -0.4330   -0.7500    0.0000 C   0  0  0  0  0  0  0  0  0  0  0  0
   -1.7321    0.0000    0.0000 C   0  0  0  0  0  0  0  0  0  0  0  0
   -3.0311   -0.7500    0.0000 C   0  0  0  0  0  0  0  0  0  0  0  0
   -3.0311    0.7500    0.0000 C   0  0  0  0  0  0  0  0  0  0  0  0
   -4.5083    1.0105    0.0000 C   0  0  0  0  0  0  0  0  0  0  0  0
   -5.9855    1.2709    0.0000 N   0  0  0  0  0  0  0  0  0  0  0  0
   -6.4985    2.6805    0.0000 Cl  0  0  0  0  0  0  0  0  0  0  0  0
    7.3827    0.6281    0.0000 H   0  0  0  0  0  0  0  0  0  0  0  0
    5.5562    0.1354    0.0000 H   0  0  0  0  0  0  0  0  0  0  0  0
    6.8337    2.6772    0.0000 H   0  0  0  0  0  0  0  0  0  0  0  0
    5.4657    3.4646    0.0000 H   0  0  0  0  0  0  0  0  0  0  0  0
    2.5214    0.2291    0.0000 H   0  0  0  0  0  0  0  0  0  0  0  0
    4.5557   -0.1532    0.0000 H   0  0  0  0  0  0  0  0  0  0  0  0
    1.6735    0.6363    0.0000 H   0  0  0  0  0  0  0  0  0  0  0  0
    4.5040    4.0996    0.0000 H   0  0  0  0  0  0  0  0  0  0  0  0
    1.8302    6.4472    0.0000 H   0  0  0  0  0  0  0  0  0  0  0  0
    5.3925    6.7981    0.0000 H   0  0  0  0  0  0  0  0  0  0  0  0
    3.3434    7.3472    0.0000 H   0  0  0  0  0  0  0  0  0  0  0  0
    4.8247    5.0778    0.0000 H   0  0  0  0  0  0  0  0  0  0  0  0
    0.3530    5.9095    0.0000 H   0  0  0  0  0  0  0  0  0  0  0  0
   -1.1242    4.1491    0.0000 H   0  0  0  0  0  0  0  0  0  0  0  0
    1.2154    2.2835    0.0000 H   0  0  0  0  0  0  0  0  0  0  0  0
   -0.4330   -2.2500    0.0000 H   0  0  0  0  0  0  0  0  0  0  0  0
   -2.5181   -2.1595    0.0000 H   0  0  0  0  0  0  0  0  0  0  0  0
   -4.4655   -1.1886    0.0000 H   0  0  0  0  0  0  0  0  0  0  0  0
   -2.5181    2.1595    0.0000 H   0  0  0  0  0  0  0  0  0  0  0  0
   -4.2478    2.4877    0.0000 H   0  0  0  0  0  0  0  0  0  0  0  0
   -4.9469   -0.4240    0.0000 H   0  0  0  0  0  0  0  0  0  0  0  0
   -6.9497    0.1219    0.0000 H   0  0  0  0  0  0  0  0  0  0  0  0
  1  2  1  0
  2  3  1  0
  3  4  1  0
  4  5  1  0
  4  6  1  0
  6  7  1  0
  7  8  1  0
  7  9  1  0
  9 10  1  0
 10 11  1  0
 11 12  1  0
 12 13  1  0
 13 14  1  0
 14 15  1  0
 15 16  1  0
 16 17  1  0
 17 18  1  0
 18 19  1  0
 19 20  1  0
 20 21  1  0
  4  2  1  0
  9  6  1  0
 15 13  1  0
 18 16  1  0
 11  9  1  0
 16 13  1  0
  1 22  1  0
  1 23  1  0
  1 24  1  0
  2 25  1  0
  3 26  1  0
  3 27  1  0
  5 28  1  0
  6 29  1  0
  7 30  1  0
  8 31  1  0
  8 32  1  0
  8 33  1  0
 10 34  1  0
 10 35  1  0
 11 36  1  0
 15 37  1  0
 17 38  1  0
 17 39  1  0
 18 40  1  0
 19 41  1  0
 19 42  1  0
 20 43  1  0
M  END
$$$$
