
     RDKit          2D

 83 88  0  0  0  0  0  0  0  0999 V2000
    2.9679   -1.2135    0.0000 C   0  0  0  0  0  0  0  0  0  0  0  0
    2.3578    0.1568    0.0000 C   0  0  0  0  0  0  0  0  0  0  0  0
    0.8660    0.0000    0.0000 C   0  0  0  0  0  0  0  0  0  0  0  0
   -0.4330    0.7500    0.0000 C   0  0  0  0  0  0  0  0  0  0  0  0
   -1.0431    2.1203    0.0000 C   0  0  0  0  0  0  0  0  0  0  0  0
   -0.7313    3.5875    0.0000 C   0  0  0  0  0  0  0  0  0  0  0  0
   -2.2230    3.4307    0.0000 C   0  0  0  0  0  0  0  0  0  0  0  0
   -3.6496    2.9672    0.0000 C   0  0  0  0  0  0  0  0  0  0  0  0
   -4.5313    4.1807    0.0000 C   0  0  0  0  0  0  0  0  0  0  0  0
   -5.6460    3.1771    0.0000 C   0  0  0  0  0  0  0  0  0  0  0  0
   -6.6497    4.2918    0.0000 C   0  0  0  0  0  0  0  0  0  0  0  0
   -7.6534    5.4065    0.0000 C   0  0  0  0  0  0  0  0  0  0  0  0
   -8.6571    6.5212    0.0000 C   0  0  0  0  0  0  0  0  0  0  0  0
   -8.7681    4.4028    0.0000 C   0  0  0  0  0  0  0  0  0  0  0  0
   -9.8828    3.3991    0.0000 C   0  0  0  0  0  0  0  0  0  0  0  0
  -10.9976    2.3954    0.0000 C   0  0  0  0  0  0  0  0  0  0  0  0
   -7.7644    3.2881    0.0000 C   0  0  0  0  0  0  0  0  0  0  0  0
   -8.2280    1.8615    0.0000 C   0  0  0  0  0  0  0  0  0  0  0  0
   -9.7134    2.0702    0.0000 C   0  0  0  0  0  0  0  0  0  0  0  0
   -6.7607    2.1734    0.0000 C   0  0  0  0  0  0  0  0  0  0  0  0
   -3.6496    5.3943    0.0000 N   0  0  0  0  0  0  0  0  0  0  0  0
   -4.1131    6.8209    0.0000 O   0  0  0  0  0  0  0  0  0  0  0  0
   -2.2230    4.9307    0.0000 C   0  0  0  0  0  0  0  0  0  0  0  0
   -0.7313    4.7740    0.0000 N   0  0  0  0  0  0  0  0  0  0  0  0
   -1.9112    6.3980    0.0000 C   0  0  0  0  0  0  0  0  0  0  0  0
   -1.5993    7.8652    0.0000 C   0  0  0  0  0  0  0  0  0  0  0  0
    0.3835    4.5912    0.0000 C   0  0  0  0  0  0  0  0  0  0  0  0
    1.8752    4.7480    0.0000 C   0  0  0  0  0  0  0  0  0  0  0  0
    3.1743    3.9980    0.0000 C   0  0  0  0  0  0  0  0  0  0  0  0
    3.7844    2.6277    0.0000 C   0  0  0  0  0  0  0  0  0  0  0  0
    3.4725    1.1605    0.0000 C   0  0  0  0  0  0  0  0  0  0  0  0
    4.9643    1.3173    0.0000 N   0  0  0  0  0  0  0  0  0  0  0  0
    4.0826   -0.2098    0.0000 O   0  0  0  0  0  0  0  0  0  0  0  0
   -0.4330   -0.7500    0.0000 C   0  0  0  0  0  0  0  0  0  0  0  0
    4.4597   -1.3703    0.0000 H   0  0  0  0  0  0  0  0  0  0  0  0
    2.0862   -2.4271    0.0000 H   0  0  0  0  0  0  0  0  0  0  0  0
    1.3296   -1.4266    0.0000 H   0  0  0  0  0  0  0  0  0  0  0  0
   -1.9002    0.4381    0.0000 H   0  0  0  0  0  0  0  0  0  0  0  0
   -2.4526    1.6072    0.0000 H   0  0  0  0  0  0  0  0  0  0  0  0
   -0.9643    4.3499    0.0000 H   0  0  0  0  0  0  0  0  0  0  0  0
   -2.0923    1.9365    0.0000 H   0  0  0  0  0  0  0  0  0  0  0  0
   -3.2111    1.5328    0.0000 H   0  0  0  0  0  0  0  0  0  0  0  0
   -4.8475    2.0645    0.0000 H   0  0  0  0  0  0  0  0  0  0  0  0
   -5.5154    5.3128    0.0000 H   0  0  0  0  0  0  0  0  0  0  0  0
   -4.7857    1.9483    0.0000 H   0  0  0  0  0  0  0  0  0  0  0  0
   -5.6657    5.4239    0.0000 H   0  0  0  0  0  0  0  0  0  0  0  0
   -6.5387    6.4102    0.0000 H   0  0  0  0  0  0  0  0  0  0  0  0
   -9.6608    7.6359    0.0000 H   0  0  0  0  0  0  0  0  0  0  0  0
   -7.5424    7.5249    0.0000 H   0  0  0  0  0  0  0  0  0  0  0  0
   -9.8859    5.6609    0.0000 H   0  0  0  0  0  0  0  0  0  0  0  0
   -9.9002    5.3868    0.0000 H   0  0  0  0  0  0  0  0  0  0  0  0
   -8.0640    3.0783    0.0000 H   0  0  0  0  0  0  0  0  0  0  0  0
  -10.8865    4.5138    0.0000 H   0  0  0  0  0  0  0  0  0  0  0  0
   -9.1787    2.0746    0.0000 H   0  0  0  0  0  0  0  0  0  0  0  0
  -12.1123    1.3917    0.0000 H   0  0  0  0  0  0  0  0  0  0  0  0
  -12.0013    3.5101    0.0000 H   0  0  0  0  0  0  0  0  0  0  0  0
  -10.1372    1.1666    0.0000 H   0  0  0  0  0  0  0  0  0  0  0  0
   -9.1126    3.9456    0.0000 H   0  0  0  0  0  0  0  0  0  0  0  0
   -8.1756    0.3624    0.0000 H   0  0  0  0  0  0  0  0  0  0  0  0
  -11.2051    1.9134    0.0000 H   0  0  0  0  0  0  0  0  0  0  0  0
   -9.7395    0.5705    0.0000 H   0  0  0  0  0  0  0  0  0  0  0  0
  -10.0509    3.5318    0.0000 H   0  0  0  0  0  0  0  0  0  0  0  0
   -6.0797    0.8368    0.0000 H   0  0  0  0  0  0  0  0  0  0  0  0
   -3.2528    8.0496    0.0000 H   0  0  0  0  0  0  0  0  0  0  0  0
    0.1504    5.9875    0.0000 H   0  0  0  0  0  0  0  0  0  0  0  0
    0.1923    3.5920    0.0000 H   0  0  0  0  0  0  0  0  0  0  0  0
   -3.2593    7.0556    0.0000 H   0  0  0  0  0  0  0  0  0  0  0  0
   -0.4121    6.4504    0.0000 H   0  0  0  0  0  0  0  0  0  0  0  0
   -1.2874    9.3324    0.0000 H   0  0  0  0  0  0  0  0  0  0  0  0
   -0.1321    7.5533    0.0000 H   0  0  0  0  0  0  0  0  0  0  0  0
   -3.0176    8.3536    0.0000 H   0  0  0  0  0  0  0  0  0  0  0  0
   -0.4113    5.8634    0.0000 H   0  0  0  0  0  0  0  0  0  0  0  0
    0.6953    6.0585    0.0000 H   0  0  0  0  0  0  0  0  0  0  0  0
    1.4367    6.1825    0.0000 H   0  0  0  0  0  0  0  0  0  0  0  0
    2.8593    5.8801    0.0000 H   0  0  0  0  0  0  0  0  0  0  0  0
    3.6627    5.4163    0.0000 H   0  0  0  0  0  0  0  0  0  0  0  0
    4.6358    4.3355    0.0000 H   0  0  0  0  0  0  0  0  0  0  0  0
    5.0131    3.4880    0.0000 H   0  0  0  0  0  0  0  0  0  0  0  0
    5.2263    2.2143    0.0000 H   0  0  0  0  0  0  0  0  0  0  0  0
    5.9873    0.2203    0.0000 H   0  0  0  0  0  0  0  0  0  0  0  0
    5.5744    2.6876    0.0000 H   0  0  0  0  0  0  0  0  0  0  0  0
    5.5442   -0.5473    0.0000 H   0  0  0  0  0  0  0  0  0  0  0  0
   -1.1830   -2.0490    0.0000 H   0  0  0  0  0  0  0  0  0  0  0  0
  1  2  2  3
  2  3  1  0
  3  4  1  0
  4  5  1  0
  5  6  1  0
  6  7  1  0
  7  8  1  0
  8  9  1  0
  9 10  1  0
 10 11  1  0
 11 12  1  0
 12 13  1  0
 12 14  1  0
 14 15  1  0
 15 16  1  0
 11 17  1  0
 17 18  1  0
 18 19  1  0
 18 20  1  0
  9 21  1  0
 21 22  1  0
 21 23  1  0
 23 24  1  6
 23 25  1  0
 25 26  1  0
  6 27  1  0
 27 28  1  0
 28 29  1  0
 29 30  1  0
 30 31  1  0
 31 32  1  0
 31 33  1  6
  5 34  1  0
 31  2  1  0
 34  3  1  0
 34  4  1  0
 23  7  1  0
 20 10  1  0
 20 17  1  0
  1 35  1  0
  1 36  1  0
  3 37  1  1
  4 38  1  1
  5 39  1  1
  6 40  1  6
  7 41  1  1
  8 42  1  0
  8 43  1  0
  9 44  1  6
 10 45  1  1
 11 46  1  1
 12 47  1  6
 13 48  1  0
 13 49  1  0
 13 50  1  0
 14 51  1  0
 14 52  1  0
 15 53  1  0
 15 54  1  0
 16 55  1  0
 16 56  1  0
 16 57  1  0
 17 58  1  1
 18 59  1  6
 19 60  1  0
 19 61  1  0
 19 62  1  0
 20 63  1  1
 22 64  1  0
 24 65  1  0
 24 66  1  0
 25 67  1  0
 25 68  1  0
 26 69  1  0
 26 70  1  0
 26 71  1  0
 27 72  1  0
 27 73  1  0
 28 74  1  0
 28 75  1  0
 29 76  1  0
 29 77  1  0
 30 78  1  0
 30 79  1  0
 32 80  1  0
 32 81  1  0
 33 82  1  0
 34 83  1  1
M  END
$$$$
