
     RDKit          2D

 47 54  0  0  0  0  0  0  0  0999 V2000
    1.7683    5.1172    0.0000 C   0  0  0  0  0  0  0  0  0  0  0  0
    2.2814    3.7077    0.0000 C   0  0  0  0  0  0  0  0  0  0  0  0
    2.7944    2.2981    0.0000 N   0  0  0  0  0  0  0  0  0  0  0  0
    1.8302    1.1491    0.0000 C   0  0  0  0  0  0  0  0  0  0  0  0
    0.8660    0.0000    0.0000 C   0  0  0  0  0  0  0  0  0  0  0  0
   -0.4330    0.7500    0.0000 N   0  0  0  0  0  0  0  0  0  0  0  0
   -1.9330    0.7500    0.0000 C   0  0  0  0  0  0  0  0  0  0  0  0
   -3.2321   -0.0000    0.0000 C   0  0  0  0  0  0  0  0  0  0  0  0
   -3.5802   -1.6694    0.0000 C   0  0  0  0  0  0  0  0  0  0  0  0
   -4.6408   -2.7300    0.0000 C   0  0  0  0  0  0  0  0  0  0  0  0
   -5.7015   -3.7907    0.0000 C   0  0  0  0  0  0  0  0  0  0  0  0
   -7.1504   -4.1789    0.0000 C   0  0  0  0  0  0  0  0  0  0  0  0
   -7.5386   -5.6278    0.0000 C   0  0  0  0  0  0  0  0  0  0  0  0
   -6.4780   -6.6885    0.0000 C   0  0  0  0  0  0  0  0  0  0  0  0
   -5.0291   -6.3002    0.0000 C   0  0  0  0  0  0  0  0  0  0  0  0
   -4.6408   -4.8513    0.0000 C   0  0  0  0  0  0  0  0  0  0  0  0
   -3.5802   -3.7907    0.0000 C   0  0  0  0  0  0  0  0  0  0  0  0
   -2.5195   -2.7300    0.0000 C   0  0  0  0  0  0  0  0  0  0  0  0
   -1.1830   -2.0490    0.0000 C   0  0  0  0  0  0  0  0  0  0  0  0
   -1.0002   -3.5379    0.0000 F   0  0  0  0  0  0  0  0  0  0  0  0
   -1.9330   -0.7500    0.0000 C   0  0  0  0  0  0  0  0  0  0  0  0
   -0.4330   -0.7500    0.0000 C   0  0  0  0  0  0  0  0  0  0  0  0
    1.2553    6.5268    0.0000 H   0  0  0  0  0  0  0  0  0  0  0  0
    0.3588    4.6042    0.0000 H   0  0  0  0  0  0  0  0  0  0  0  0
    3.1779    5.6302    0.0000 H   0  0  0  0  0  0  0  0  0  0  0  0
    0.8718    3.1946    0.0000 H   0  0  0  0  0  0  0  0  0  0  0  0
    3.6909    4.2207    0.0000 H   0  0  0  0  0  0  0  0  0  0  0  0
    4.2716    2.0377    0.0000 H   0  0  0  0  0  0  0  0  0  0  0  0
    2.9793    0.1849    0.0000 H   0  0  0  0  0  0  0  0  0  0  0  0
    0.6811    2.1132    0.0000 H   0  0  0  0  0  0  0  0  0  0  0  0
    1.8302   -1.1491    0.0000 H   0  0  0  0  0  0  0  0  0  0  0  0
   -2.3212    2.1989    0.0000 H   0  0  0  0  0  0  0  0  0  0  0  0
   -4.7209    0.1828    0.0000 H   0  0  0  0  0  0  0  0  0  0  0  0
   -4.8921   -0.9422    0.0000 H   0  0  0  0  0  0  0  0  0  0  0  0
   -5.7015   -1.6694    0.0000 H   0  0  0  0  0  0  0  0  0  0  0  0
   -6.2876   -2.4099    0.0000 H   0  0  0  0  0  0  0  0  0  0  0  0
   -8.6447   -4.0482    0.0000 H   0  0  0  0  0  0  0  0  0  0  0  0
   -7.4623   -2.7117    0.0000 H   0  0  0  0  0  0  0  0  0  0  0  0
   -8.3990   -6.8565    0.0000 H   0  0  0  0  0  0  0  0  0  0  0  0
   -8.8981   -4.9939    0.0000 H   0  0  0  0  0  0  0  0  0  0  0  0
   -5.8440   -8.0479    0.0000 H   0  0  0  0  0  0  0  0  0  0  0  0
   -7.7067   -7.5488    0.0000 H   0  0  0  0  0  0  0  0  0  0  0  0
   -3.5619   -6.6121    0.0000 H   0  0  0  0  0  0  0  0  0  0  0  0
   -4.8983   -7.7945    0.0000 H   0  0  0  0  0  0  0  0  0  0  0  0
   -3.2601   -5.4374    0.0000 H   0  0  0  0  0  0  0  0  0  0  0  0
   -2.5195   -4.8513    0.0000 H   0  0  0  0  0  0  0  0  0  0  0  0
   -1.7923   -4.0420    0.0000 H   0  0  0  0  0  0  0  0  0  0  0  0
  1  2  1  0
  2  3  1  0
  3  4  1  0
  4  5  1  0
  5  6  1  0
  6  7  1  0
  7  8  1  0
  8  9  1  0
  9 10  1  0
 10 11  1  0
 11 12  1  0
 12 13  1  0
 13 14  1  0
 14 15  1  0
 15 16  1  0
 16 17  1  0
 17 18  1  0
 18 19  1  0
 19 20  1  0
 19 21  1  0
 21 22  1  0
 22  5  1  0
 22  6  1  0
 21  7  1  0
 21  8  1  0
 18  9  1  0
 22 19  1  0
 17 10  1  0
 16 11  1  0
  1 23  1  0
  1 24  1  0
  1 25  1  0
  2 26  1  0
  2 27  1  0
  3 28  1  0
  4 29  1  0
  4 30  1  0
  5 31  1  0
  7 32  1  0
  8 33  1  0
  9 34  1  0
 10 35  1  0
 11 36  1  0
 12 37  1  0
 12 38  1  0
 13 39  1  0
 13 40  1  0
 14 41  1  0
 14 42  1  0
 15 43  1  0
 15 44  1  0
 16 45  1  0
 17 46  1  0
 18 47  1  0
M  END
$$$$
