
     RDKit          2D

 33 36  0  0  0  0  0  0  0  0999 V2000
   -3.7190    0.0000    0.0000 C   0  0  0  0  0  0  0  0  0  0  0  0
   -3.0682   -1.3515    0.0000 C   0  0  0  0  0  0  0  0  0  0  0  0
   -1.6058   -1.6852    0.0000 C   0  0  0  0  0  0  0  0  0  0  0  0
    0.5872   -1.4738    0.0000 C   0  0  0  0  0  0  0  0  0  0  0  0
    0.8660    0.0000    0.0000 C   0  0  0  0  0  0  0  0  0  0  0  0
   -0.4330    0.7500    0.0000 C   0  0  0  0  0  0  0  0  0  0  0  0
   -1.6058    1.6852    0.0000 C   0  0  0  0  0  0  0  0  0  0  0  0
   -3.0682    1.3515    0.0000 C   0  0  0  0  0  0  0  0  0  0  0  0
   -4.5305    1.6852    0.0000 N   0  0  0  0  0  0  0  0  0  0  0  0
   -4.9727    3.1186    0.0000 C   0  0  0  0  0  0  0  0  0  0  0  0
   -5.4148    4.5520    0.0000 C   0  0  0  0  0  0  0  0  0  0  0  0
   -6.3205    5.7477    0.0000 C   0  0  0  0  0  0  0  0  0  0  0  0
   -6.9032    4.3654    0.0000 C   0  0  0  0  0  0  0  0  0  0  0  0
   -0.4330   -0.7500    0.0000 C   0  0  0  0  0  0  0  0  0  0  0  0
   -5.2078   -0.1828    0.0000 H   0  0  0  0  0  0  0  0  0  0  0  0
   -4.0034   -2.5242    0.0000 H   0  0  0  0  0  0  0  0  0  0  0  0
   -1.2720   -3.1476    0.0000 H   0  0  0  0  0  0  0  0  0  0  0  0
    2.0610   -1.7527    0.0000 H   0  0  0  0  0  0  0  0  0  0  0  0
    0.3083   -2.9477    0.0000 H   0  0  0  0  0  0  0  0  0  0  0  0
    2.3660    0.0000    0.0000 H   0  0  0  0  0  0  0  0  0  0  0  0
    0.4120    1.9894    0.0000 H   0  0  0  0  0  0  0  0  0  0  0  0
   -2.0870    3.1059    0.0000 H   0  0  0  0  0  0  0  0  0  0  0  0
   -0.4330    2.6205    0.0000 H   0  0  0  0  0  0  0  0  0  0  0  0
   -3.0682    2.8515    0.0000 H   0  0  0  0  0  0  0  0  0  0  0  0
   -5.6772    0.7182    0.0000 H   0  0  0  0  0  0  0  0  0  0  0  0
   -3.6039    3.7322    0.0000 H   0  0  0  0  0  0  0  0  0  0  0  0
   -6.2046    2.5664    0.0000 H   0  0  0  0  0  0  0  0  0  0  0  0
   -4.0800    5.2363    0.0000 H   0  0  0  0  0  0  0  0  0  0  0  0
   -5.3003    6.8472    0.0000 H   0  0  0  0  0  0  0  0  0  0  0  0
   -7.5806    6.5615    0.0000 H   0  0  0  0  0  0  0  0  0  0  0  0
   -8.3656    4.6992    0.0000 H   0  0  0  0  0  0  0  0  0  0  0  0
   -7.1343    3.0354    0.0000 H   0  0  0  0  0  0  0  0  0  0  0  0
    0.1621   -1.2804    0.0000 H   0  0  0  0  0  0  0  0  0  0  0  0
  1  2  2  0
  2  3  1  0
  3  4  1  0
  4  5  1  0
  5  6  1  0
  6  7  1  0
  7  8  1  0
  8  9  1  0
  9 10  1  0
 10 11  1  0
 11 12  1  0
 12 13  1  0
  6 14  1  0
  8  1  1  0
 13 11  1  0
 14  3  1  0
 14  5  1  0
  1 15  1  0
  2 16  1  0
  3 17  1  6
  4 18  1  0
  4 19  1  0
  5 20  1  6
  6 21  1  6
  7 22  1  0
  7 23  1  0
  8 24  1  6
  9 25  1  0
 10 26  1  0
 10 27  1  0
 11 28  1  0
 12 29  1  0
 12 30  1  0
 13 31  1  0
 13 32  1  0
 14 33  1  6
M  END
$$$$
