
     RDKit          2D

 68 71  0  0  0  0  0  0  0  0999 V2000
    2.5670    8.2500    0.0000 C   0  0  0  0  0  0  0  0  0  0  0  0
    1.0670    8.2500    0.0000 C   0  0  0  0  0  0  0  0  0  0  0  0
   -0.4330    8.2500    0.0000 C   0  0  0  0  0  0  0  0  0  0  0  0
   -0.4330    9.7500    0.0000 C   0  0  0  0  0  0  0  0  0  0  0  0
   -1.9330    8.2500    0.0000 C   0  0  0  0  0  0  0  0  0  0  0  0
   -1.9330    6.7500    0.0000 C   0  0  0  0  0  0  0  0  0  0  0  0
   -3.4330    6.7500    0.0000 C   0  0  0  0  0  0  0  0  0  0  0  0
   -4.9330    6.7500    0.0000 C   0  0  0  0  0  0  0  0  0  0  0  0
   -3.4330    8.2500    0.0000 C   0  0  0  0  0  0  0  0  0  0  0  0
   -0.4330    6.7500    0.0000 C   0  0  0  0  0  0  0  0  0  0  0  0
    1.0670    6.7500    0.0000 C   0  0  0  0  0  0  0  0  0  0  0  0
   -0.4330    5.2500    0.0000 C   0  0  0  0  0  0  0  0  0  0  0  0
   -0.4330    3.7500    0.0000 C   0  0  0  0  0  0  0  0  0  0  0  0
   -0.4330    2.2500    0.0000 C   0  0  0  0  0  0  0  0  0  0  0  0
   -1.9330    2.2500    0.0000 N   0  0  0  0  0  0  0  0  0  0  0  0
   -2.6830    0.9510    0.0000 C   0  0  0  0  0  0  0  0  0  0  0  0
   -1.3840    0.2010    0.0000 C   0  0  0  0  0  0  0  0  0  0  0  0
   -0.8106   -0.3528    0.0000 Cl  0  0  0  0  0  0  0  0  0  0  0  0
   -3.9821    1.7010    0.0000 C   0  0  0  0  0  0  0  0  0  0  0  0
   -5.2811    2.4510    0.0000 C   0  0  0  0  0  0  0  0  0  0  0  0
   -4.7321    0.4019    0.0000 C   0  0  0  0  0  0  0  0  0  0  0  0
   -0.4330    0.7500    0.0000 C   0  0  0  0  0  0  0  0  0  0  0  0
    0.8660    0.0000    0.0000 C   0  0  0  0  0  0  0  0  0  0  0  0
   -0.4330   -0.7500    0.0000 C   0  0  0  0  0  0  0  0  0  0  0  0
   -1.7321   -1.5000    0.0000 C   0  0  0  0  0  0  0  0  0  0  0  0
   -1.7321    0.0000    0.0000 C   0  0  0  0  0  0  0  0  0  0  0  0
    4.0670    8.2500    0.0000 H   0  0  0  0  0  0  0  0  0  0  0  0
    2.5670    9.7500    0.0000 H   0  0  0  0  0  0  0  0  0  0  0  0
    2.7498    6.7612    0.0000 H   0  0  0  0  0  0  0  0  0  0  0  0
    1.4299    6.7946    0.0000 H   0  0  0  0  0  0  0  0  0  0  0  0
    1.2498    9.7388    0.0000 H   0  0  0  0  0  0  0  0  0  0  0  0
   -0.4330   11.2500    0.0000 H   0  0  0  0  0  0  0  0  0  0  0  0
    1.0558    9.9328    0.0000 H   0  0  0  0  0  0  0  0  0  0  0  0
   -1.9218    9.9328    0.0000 H   0  0  0  0  0  0  0  0  0  0  0  0
   -2.1159    9.7388    0.0000 H   0  0  0  0  0  0  0  0  0  0  0  0
   -3.3884    8.6130    0.0000 H   0  0  0  0  0  0  0  0  0  0  0  0
   -2.1159    5.2612    0.0000 H   0  0  0  0  0  0  0  0  0  0  0  0
   -3.4330    5.2500    0.0000 H   0  0  0  0  0  0  0  0  0  0  0  0
   -6.4330    6.7500    0.0000 H   0  0  0  0  0  0  0  0  0  0  0  0
   -5.1159    8.2388    0.0000 H   0  0  0  0  0  0  0  0  0  0  0  0
   -4.9330    5.2500    0.0000 H   0  0  0  0  0  0  0  0  0  0  0  0
   -3.4330    9.7500    0.0000 H   0  0  0  0  0  0  0  0  0  0  0  0
   -4.9218    8.4328    0.0000 H   0  0  0  0  0  0  0  0  0  0  0  0
   -1.9776    8.6130    0.0000 H   0  0  0  0  0  0  0  0  0  0  0  0
    2.5558    6.5672    0.0000 H   0  0  0  0  0  0  0  0  0  0  0  0
    1.4299    8.2054    0.0000 H   0  0  0  0  0  0  0  0  0  0  0  0
    1.2498    5.2612    0.0000 H   0  0  0  0  0  0  0  0  0  0  0  0
   -1.9218    5.0672    0.0000 H   0  0  0  0  0  0  0  0  0  0  0  0
    1.0558    5.0672    0.0000 H   0  0  0  0  0  0  0  0  0  0  0  0
    1.0670    3.7500    0.0000 H   0  0  0  0  0  0  0  0  0  0  0  0
   -1.9218    3.9328    0.0000 H   0  0  0  0  0  0  0  0  0  0  0  0
    1.0670    2.2500    0.0000 H   0  0  0  0  0  0  0  0  0  0  0  0
   -2.6830    3.5490    0.0000 H   0  0  0  0  0  0  0  0  0  0  0  0
   -3.4330   -0.3481    0.0000 H   0  0  0  0  0  0  0  0  0  0  0  0
   -2.4260   -0.8780    0.0000 H   0  0  0  0  0  0  0  0  0  0  0  0
   -0.1118    0.9957    0.0000 H   0  0  0  0  0  0  0  0  0  0  0  0
   -3.3960    3.0817    0.0000 H   0  0  0  0  0  0  0  0  0  0  0  0
   -6.5801    3.2010    0.0000 H   0  0  0  0  0  0  0  0  0  0  0  0
   -6.3231    1.3720    0.0000 H   0  0  0  0  0  0  0  0  0  0  0  0
   -4.5311    3.7500    0.0000 H   0  0  0  0  0  0  0  0  0  0  0  0
   -5.4821   -0.8971    0.0000 H   0  0  0  0  0  0  0  0  0  0  0  0
   -6.0311    1.1519    0.0000 H   0  0  0  0  0  0  0  0  0  0  0  0
   -6.1740    0.8153    0.0000 H   0  0  0  0  0  0  0  0  0  0  0  0
    1.8302    1.1491    0.0000 H   0  0  0  0  0  0  0  0  0  0  0  0
    1.8302   -1.1491    0.0000 H   0  0  0  0  0  0  0  0  0  0  0  0
   -1.2190   -2.9095    0.0000 H   0  0  0  0  0  0  0  0  0  0  0  0
   -3.2093   -1.7605    0.0000 H   0  0  0  0  0  0  0  0  0  0  0  0
   -3.1740    0.4134    0.0000 H   0  0  0  0  0  0  0  0  0  0  0  0
  1  2  1  0
  3  2  1  6
  3  4  1  0
  3  5  1  0
  5  6  1  0
  6  7  1  0
  7  8  1  0
  7  9  1  0
  6 10  1  0
 10 11  1  6
 10 12  1  0
 12 13  1  0
 13 14  1  0
 14 15  1  0
 15 16  1  0
 16 17  1  0
 17 18  1  0
 16 19  1  0
 19 20  1  0
 19 21  1  0
 14 22  1  0
 22 23  1  6
 24 23  1  1
 24 25  1  0
 25 26  1  0
 10  3  1  0
 24 22  1  0
 26 22  1  0
 26 24  1  0
  1 27  1  0
  1 28  1  0
  1 29  1  0
  2 30  1  0
  2 31  1  0
  4 32  1  0
  4 33  1  0
  4 34  1  0
  5 35  1  0
  5 36  1  0
  6 37  1  6
  7 38  1  0
  8 39  1  0
  8 40  1  0
  8 41  1  0
  9 42  1  0
  9 43  1  0
  9 44  1  0
 11 45  1  0
 11 46  1  0
 11 47  1  0
 12 48  1  0
 12 49  1  0
 13 50  1  0
 13 51  1  0
 14 52  1  6
 15 53  1  0
 16 54  1  1
 17 55  1  0
 17 56  1  0
 19 57  1  0
 20 58  1  0
 20 59  1  0
 20 60  1  0
 21 61  1  0
 21 62  1  0
 21 63  1  0
 23 64  1  0
 23 65  1  0
 25 66  1  0
 25 67  1  0
 26 68  1  1
M  END
$$$$
