
     RDKit          2D

 30 34  0  0  0  0  0  0  0  0999 V2000
   -2.1914   -3.3087    0.0000 O   0  0  0  0  0  0  0  0  0  0  0  0
   -3.0731   -2.0952    0.0000 C   0  0  0  0  0  0  0  0  0  0  0  0
   -4.2866   -2.9769    0.0000 C   0  0  0  0  0  0  0  0  0  0  0  0
   -3.4050   -4.1904    0.0000 C   0  0  0  0  0  0  0  0  0  0  0  0
   -4.6185   -5.0721    0.0000 C   0  0  0  0  0  0  0  0  0  0  0  0
   -6.1103   -5.2289    0.0000 C   0  0  0  0  0  0  0  0  0  0  0  0
   -5.5002   -3.8586    0.0000 C   0  0  0  0  0  0  0  0  0  0  0  0
   -3.9548   -0.8817    0.0000 C   0  0  0  0  0  0  0  0  0  0  0  0
   -2.7413    0.0000    0.0000 N   0  0  0  0  0  0  0  0  0  0  0  0
   -1.8596    1.2135    0.0000 C   0  0  0  0  0  0  0  0  0  0  0  0
   -0.4330    0.7500    0.0000 C   0  0  0  0  0  0  0  0  0  0  0  0
    0.8660    0.0000    0.0000 C   0  0  0  0  0  0  0  0  0  0  0  0
   -0.4330   -0.7500    0.0000 C   0  0  0  0  0  0  0  0  0  0  0  0
   -1.8596   -1.2135    0.0000 N   0  0  0  0  0  0  0  0  0  0  0  0
   -0.6997   -3.1519    0.0000 H   0  0  0  0  0  0  0  0  0  0  0  0
   -3.6760   -3.4893    0.0000 H   0  0  0  0  0  0  0  0  0  0  0  0
   -2.5233   -5.4039    0.0000 H   0  0  0  0  0  0  0  0  0  0  0  0
   -2.0142   -3.6286    0.0000 H   0  0  0  0  0  0  0  0  0  0  0  0
   -4.0809   -6.4725    0.0000 H   0  0  0  0  0  0  0  0  0  0  0  0
   -6.2149   -6.7252    0.0000 H   0  0  0  0  0  0  0  0  0  0  0  0
   -7.5657   -4.8660    0.0000 H   0  0  0  0  0  0  0  0  0  0  0  0
   -6.6659   -2.9146    0.0000 H   0  0  0  0  0  0  0  0  0  0  0  0
   -4.8365    0.3318    0.0000 H   0  0  0  0  0  0  0  0  0  0  0  0
   -5.1683   -1.7634    0.0000 H   0  0  0  0  0  0  0  0  0  0  0  0
   -3.1586    1.9635    0.0000 H   0  0  0  0  0  0  0  0  0  0  0  0
   -1.2495    2.5838    0.0000 H   0  0  0  0  0  0  0  0  0  0  0  0
    0.1771    2.1203    0.0000 H   0  0  0  0  0  0  0  0  0  0  0  0
    1.8302    1.1491    0.0000 H   0  0  0  0  0  0  0  0  0  0  0  0
    1.8302   -1.1491    0.0000 H   0  0  0  0  0  0  0  0  0  0  0  0
    0.1771   -2.1203    0.0000 H   0  0  0  0  0  0  0  0  0  0  0  0
  2  1  1  6
  2  3  1  0
  3  4  1  0
  4  5  1  0
  5  6  1  0
  6  7  1  0
  2  8  1  0
  8  9  1  0
  9 10  1  0
 10 11  1  0
 11 12  1  0
 12 13  1  0
 13 14  1  0
 14  2  1  0
  7  3  1  0
 14  9  1  0
  7  5  1  0
 13 11  1  0
  1 15  1  0
  3 16  1  1
  4 17  1  0
  4 18  1  0
  5 19  1  6
  6 20  1  0
  6 21  1  0
  7 22  1  6
  8 23  1  0
  8 24  1  0
 10 25  1  0
 10 26  1  0
 11 27  1  6
 12 28  1  0
 12 29  1  0
 13 30  1  6
M  END
$$$$
