
     RDKit          2D

 81 86  0  0  0  0  0  0  0  0999 V2000
   -3.2717   -5.3971    0.0000 C   0  0  0  0  0  0  0  0  0  0  0  0
   -2.8296   -3.9638    0.0000 C   0  0  0  0  0  0  0  0  0  0  0  0
   -2.3875   -2.5304    0.0000 C   0  0  0  0  0  0  0  0  0  0  0  0
   -1.0884   -3.2804    0.0000 C   0  0  0  0  0  0  0  0  0  0  0  0
    0.3079   -2.7324    0.0000 C   0  0  0  0  0  0  0  0  0  0  0  0
    0.7500   -1.2990    0.0000 C   0  0  0  0  0  0  0  0  0  0  0  0
    1.5000    0.0000    0.0000 C   0  0  0  0  0  0  0  0  0  0  0  0
    0.7500    1.2990    0.0000 C   0  0  0  0  0  0  0  0  0  0  0  0
   -0.7500    1.2990    0.0000 C   0  0  0  0  0  0  0  0  0  0  0  0
   -2.1595    1.8121    0.0000 C   0  0  0  0  0  0  0  0  0  0  0  0
   -3.5691    2.3251    0.0000 C   0  0  0  0  0  0  0  0  0  0  0  0
   -4.9786    2.8381    0.0000 C   0  0  0  0  0  0  0  0  0  0  0  0
   -3.0560    3.7346    0.0000 C   0  0  0  0  0  0  0  0  0  0  0  0
   -2.5430    5.1442    0.0000 C   0  0  0  0  0  0  0  0  0  0  0  0
   -3.9526    5.6572    0.0000 C   0  0  0  0  0  0  0  0  0  0  0  0
   -3.4395    7.0667    0.0000 C   0  0  0  0  0  0  0  0  0  0  0  0
   -2.9265    8.4763    0.0000 C   0  0  0  0  0  0  0  0  0  0  0  0
   -1.5170    7.9633    0.0000 C   0  0  0  0  0  0  0  0  0  0  0  0
   -0.1074    7.4502    0.0000 C   0  0  0  0  0  0  0  0  0  0  0  0
    1.3926    7.4502    0.0000 C   0  0  0  0  0  0  0  0  0  0  0  0
    0.6426    8.7493    0.0000 C   0  0  0  0  0  0  0  0  0  0  0  0
    1.7916    9.7134    0.0000 C   0  0  0  0  0  0  0  0  0  0  0  0
    2.9407    8.7493    0.0000 N   0  0  0  0  0  0  0  0  0  0  0  0
    2.5416   11.0125    0.0000 N   0  0  0  0  0  0  0  0  0  0  0  0
    1.0416   11.0125    0.0000 C   0  0  0  0  0  0  0  0  0  0  0  0
   -0.4199   10.6751    0.0000 Cl  0  0  0  0  0  0  0  0  0  0  0  0
    0.7812   12.4897    0.0000 C   0  0  0  0  0  0  0  0  0  0  0  0
    0.5207   13.9669    0.0000 C   0  0  0  0  0  0  0  0  0  0  0  0
   -2.0300    6.5537    0.0000 C   0  0  0  0  0  0  0  0  0  0  0  0
   -1.5000    0.0000    0.0000 C   0  0  0  0  0  0  0  0  0  0  0  0
   -2.6110   -1.0472    0.0000 C   0  0  0  0  0  0  0  0  0  0  0  0
   -0.7500   -1.2990    0.0000 C   0  0  0  0  0  0  0  0  0  0  0  0
   -3.7139   -6.8305    0.0000 H   0  0  0  0  0  0  0  0  0  0  0  0
   -1.8384   -5.8393    0.0000 H   0  0  0  0  0  0  0  0  0  0  0  0
   -4.7051   -4.9550    0.0000 H   0  0  0  0  0  0  0  0  0  0  0  0
   -4.2630   -3.5216    0.0000 H   0  0  0  0  0  0  0  0  0  0  0  0
   -2.1022   -4.2898    0.0000 H   0  0  0  0  0  0  0  0  0  0  0  0
   -3.8858   -2.6015    0.0000 H   0  0  0  0  0  0  0  0  0  0  0  0
   -0.4008   -4.6135    0.0000 H   0  0  0  0  0  0  0  0  0  0  0  0
   -1.5554   -3.9265    0.0000 H   0  0  0  0  0  0  0  0  0  0  0  0
    1.7789   -3.0260    0.0000 H   0  0  0  0  0  0  0  0  0  0  0  0
    0.7106   -4.1773    0.0000 H   0  0  0  0  0  0  0  0  0  0  0  0
    1.6528   -2.4970    0.0000 H   0  0  0  0  0  0  0  0  0  0  0  0
    2.6491    0.9642    0.0000 H   0  0  0  0  0  0  0  0  0  0  0  0
    2.6491   -0.9642    0.0000 H   0  0  0  0  0  0  0  0  0  0  0  0
    0.4895    2.7762    0.0000 H   0  0  0  0  0  0  0  0  0  0  0  0
    2.1595    1.8121    0.0000 H   0  0  0  0  0  0  0  0  0  0  0  0
   -0.4895    2.7762    0.0000 H   0  0  0  0  0  0  0  0  0  0  0  0
   -1.4785    3.1486    0.0000 H   0  0  0  0  0  0  0  0  0  0  0  0
   -2.9984    0.5686    0.0000 H   0  0  0  0  0  0  0  0  0  0  0  0
   -4.0821    0.9156    0.0000 H   0  0  0  0  0  0  0  0  0  0  0  0
   -6.3882    3.3512    0.0000 H   0  0  0  0  0  0  0  0  0  0  0  0
   -4.6412    4.2997    0.0000 H   0  0  0  0  0  0  0  0  0  0  0  0
   -5.4916    1.4286    0.0000 H   0  0  0  0  0  0  0  0  0  0  0  0
   -4.3925    4.4157    0.0000 H   0  0  0  0  0  0  0  0  0  0  0  0
   -1.5945    3.3973    0.0000 H   0  0  0  0  0  0  0  0  0  0  0  0
   -1.1335    4.6311    0.0000 H   0  0  0  0  0  0  0  0  0  0  0  0
   -5.3621    6.1702    0.0000 H   0  0  0  0  0  0  0  0  0  0  0  0
   -3.7958    7.1490    0.0000 H   0  0  0  0  0  0  0  0  0  0  0  0
   -4.8491    7.5798    0.0000 H   0  0  0  0  0  0  0  0  0  0  0  0
   -2.4135    9.8858    0.0000 H   0  0  0  0  0  0  0  0  0  0  0  0
   -4.3360    8.9893    0.0000 H   0  0  0  0  0  0  0  0  0  0  0  0
   -1.1796    9.4248    0.0000 H   0  0  0  0  0  0  0  0  0  0  0  0
   -0.1859    5.9523    0.0000 H   0  0  0  0  0  0  0  0  0  0  0  0
    1.6531    5.9730    0.0000 H   0  0  0  0  0  0  0  0  0  0  0  0
    2.8924    7.4239    0.0000 H   0  0  0  0  0  0  0  0  0  0  0  0
   -0.5065    9.7134    0.0000 H   0  0  0  0  0  0  0  0  0  0  0  0
    4.3503    9.2623    0.0000 H   0  0  0  0  0  0  0  0  0  0  0  0
    2.8623    7.2513    0.0000 H   0  0  0  0  0  0  0  0  0  0  0  0
    3.8407   11.7625    0.0000 H   0  0  0  0  0  0  0  0  0  0  0  0
   -0.6960   12.2292    0.0000 H   0  0  0  0  0  0  0  0  0  0  0  0
    2.2584   12.7502    0.0000 H   0  0  0  0  0  0  0  0  0  0  0  0
    0.2602   15.4441    0.0000 H   0  0  0  0  0  0  0  0  0  0  0  0
    1.9979   14.2274    0.0000 H   0  0  0  0  0  0  0  0  0  0  0  0
   -0.9565   13.7064    0.0000 H   0  0  0  0  0  0  0  0  0  0  0  0
   -0.6935    5.8727    0.0000 H   0  0  0  0  0  0  0  0  0  0  0  0
   -3.0000    0.0000    0.0000 H   0  0  0  0  0  0  0  0  0  0  0  0
   -4.0637   -1.4209    0.0000 H   0  0  0  0  0  0  0  0  0  0  0  0
   -3.7308   -0.0491    0.0000 H   0  0  0  0  0  0  0  0  0  0  0  0
   -0.8547   -2.7954    0.0000 H   0  0  0  0  0  0  0  0  0  0  0  0
   -1.9935   -2.1379    0.0000 H   0  0  0  0  0  0  0  0  0  0  0  0
  1  2  1  0
  2  3  1  0
  3  4  1  0
  4  5  1  0
  5  6  1  0
  6  7  1  0
  7  8  1  0
  8  9  1  0
  9 10  1  0
 10 11  1  0
 11 12  1  0
 11 13  1  0
 13 14  1  0
 14 15  1  0
 15 16  1  0
 16 17  1  0
 17 18  1  0
 18 19  1  0
 19 20  1  0
 20 21  1  0
 21 22  1  0
 22 23  1  0
 22 24  1  0
 24 25  1  0
 25 26  1  0
 25 27  1  0
 27 28  1  0
 18 29  1  0
  9 30  1  0
 30 31  1  0
 30 32  1  0
 31  3  1  0
 32  6  1  0
 29 14  1  0
 29 16  1  0
 21 19  1  0
 25 22  1  0
  1 33  1  0
  1 34  1  0
  1 35  1  0
  2 36  1  0
  2 37  1  0
  3 38  1  0
  4 39  1  0
  4 40  1  0
  5 41  1  0
  5 42  1  0
  6 43  1  0
  7 44  1  0
  7 45  1  0
  8 46  1  0
  8 47  1  0
  9 48  1  0
 10 49  1  0
 10 50  1  0
 11 51  1  0
 12 52  1  0
 12 53  1  0
 12 54  1  0
 13 55  1  0
 13 56  1  0
 14 57  1  0
 15 58  1  0
 15 59  1  0
 16 60  1  0
 17 61  1  0
 17 62  1  0
 18 63  1  0
 19 64  1  0
 20 65  1  0
 20 66  1  0
 21 67  1  0
 23 68  1  0
 23 69  1  0
 24 70  1  0
 27 71  1  0
 27 72  1  0
 28 73  1  0
 28 74  1  0
 28 75  1  0
 29 76  1  0
 30 77  1  0
 31 78  1  0
 31 79  1  0
 32 80  1  0
 32 81  1  0
M  END
$$$$
