
     RDKit          2D

 22 21  0  0  0  0  0  0  0  0999 V2000
    0.0000    0.0000    0.0000 C   0  0  0  0  0  0  0  0  0  0  0  0
    1.5000    0.0000    0.0000 P   0  0  0  0  0  0  0  0  0  0  0  0
    2.2500   -1.2990    0.0000 C   0  0  0  0  0  0  0  0  0  0  0  0
    2.2500    1.2990    0.0000 O   0  0  0  0  0  0  0  0  0  0  0  0
    3.7500    1.2990    0.0000 P   0  0  0  0  0  0  0  0  0  0  0  0
    4.5000    2.5981    0.0000 C   0  0  0  0  0  0  0  0  0  0  0  0
    5.2500    3.8971    0.0000 C   0  0  0  0  0  0  0  0  0  0  0  0
    6.0000    5.1962    0.0000 O   0  0  0  0  0  0  0  0  0  0  0  0
    7.5000    5.1962    0.0000 O   0  0  0  0  0  0  0  0  0  0  0  0
    8.2500    6.4952    0.0000 O   0  0  0  0  0  0  0  0  0  0  0  0
   -1.5000    0.0000    0.0000 H   0  0  0  0  0  0  0  0  0  0  0  0
    0.0000    1.5000    0.0000 H   0  0  0  0  0  0  0  0  0  0  0  0
   -0.0000   -1.5000    0.0000 H   0  0  0  0  0  0  0  0  0  0  0  0
    3.0000   -2.5981    0.0000 H   0  0  0  0  0  0  0  0  0  0  0  0
    3.5490   -0.5490    0.0000 H   0  0  0  0  0  0  0  0  0  0  0  0
    0.9510   -2.0490    0.0000 H   0  0  0  0  0  0  0  0  0  0  0  0
    4.5000    0.0000    0.0000 H   0  0  0  0  0  0  0  0  0  0  0  0
    3.2010    3.3481    0.0000 H   0  0  0  0  0  0  0  0  0  0  0  0
    5.7990    1.8481    0.0000 H   0  0  0  0  0  0  0  0  0  0  0  0
    3.9510    4.6471    0.0000 H   0  0  0  0  0  0  0  0  0  0  0  0
    6.5490    3.1471    0.0000 H   0  0  0  0  0  0  0  0  0  0  0  0
    9.7500    6.4952    0.0000 H   0  0  0  0  0  0  0  0  0  0  0  0
  1  2  1  0
  2  3  1  0
  2  4  1  0
  4  5  1  0
  5  6  1  0
  6  7  1  0
  7  8  1  0
  8  9  1  0
  9 10  1  0
  1 11  1  0
  1 12  1  0
  1 13  1  0
  3 14  1  0
  3 15  1  0
  3 16  1  0
  5 17  1  0
  6 18  1  0
  6 19  1  0
  7 20  1  0
  7 21  1  0
 10 22  1  0
M  END
$$$$
