
     RDKit          2D

104114  0  0  0  0  0  0  0  0999 V2000
    1.2738   -8.3847    0.0000 C   0  0  0  0  0  0  0  0  0  0  0  0
    0.6637   -7.0144    0.0000 N   0  0  0  0  0  0  0  0  0  0  0  0
    1.5454   -5.8009    0.0000 C   0  0  0  0  0  0  0  0  0  0  0  0
    2.4271   -4.5874    0.0000 C   0  0  0  0  0  0  0  0  0  0  0  0
    3.9188   -4.7442    0.0000 C   0  0  0  0  0  0  0  0  0  0  0  0
    3.3087   -3.3738    0.0000 C   0  0  0  0  0  0  0  0  0  0  0  0
    4.1904   -2.1603    0.0000 C   0  0  0  0  0  0  0  0  0  0  0  0
    5.0721   -0.9468    0.0000 C   0  0  0  0  0  0  0  0  0  0  0  0
    5.9538    0.2667    0.0000 O   0  0  0  0  0  0  0  0  0  0  0  0
    5.3437    1.6370    0.0000 C   0  0  0  0  0  0  0  0  0  0  0  0
    4.7336    3.0074    0.0000 Cl  0  0  0  0  0  0  0  0  0  0  0  0
    2.9769   -1.2786    0.0000 C   0  0  0  0  0  0  0  0  0  0  0  0
    1.7634   -0.3970    0.0000 C   0  0  0  0  0  0  0  0  0  0  0  0
    0.5498    0.4847    0.0000 C   0  0  0  0  0  0  0  0  0  0  0  0
    0.8817   -1.6105    0.0000 C   0  0  0  0  0  0  0  0  0  0  0  0
    0.0000   -2.8240    0.0000 C   0  0  0  0  0  0  0  0  0  0  0  0
   -0.8817   -4.0375    0.0000 C   0  0  0  0  0  0  0  0  0  0  0  0
   -1.2135   -1.9423    0.0000 C   0  0  0  0  0  0  0  0  0  0  0  0
   -0.0000   -1.0607    0.0000 C   0  0  0  0  0  0  0  0  0  0  0  0
    1.0607    0.0000    0.0000 C   0  0  0  0  0  0  0  0  0  0  0  0
    0.0000    1.0607    0.0000 C   0  0  0  0  0  0  0  0  0  0  0  0
   -1.2135    2.6742    0.0000 C   0  0  0  0  0  0  0  0  0  0  0  0
   -2.7135    2.6742    0.0000 C   0  0  0  0  0  0  0  0  0  0  0  0
   -3.9271    3.5559    0.0000 C   0  0  0  0  0  0  0  0  0  0  0  0
   -5.0061    2.5139    0.0000 C   0  0  0  0  0  0  0  0  0  0  0  0
   -6.0851    1.4719    0.0000 C   0  0  0  0  0  0  0  0  0  0  0  0
   -7.4554    0.8618    0.0000 C   0  0  0  0  0  0  0  0  0  0  0  0
   -7.2986    2.3536    0.0000 C   0  0  0  0  0  0  0  0  0  0  0  0
   -8.7405    2.7670    0.0000 C   0  0  0  0  0  0  0  0  0  0  0  0
   -6.6410    3.7018    0.0000 C   0  0  0  0  0  0  0  0  0  0  0  0
   -3.2695    4.9041    0.0000 C   0  0  0  0  0  0  0  0  0  0  0  0
   -3.3741    6.4004    0.0000 C   0  0  0  0  0  0  0  0  0  0  0  0
   -3.4788    7.8967    0.0000 C   0  0  0  0  0  0  0  0  0  0  0  0
   -4.9751    7.7921    0.0000 C   0  0  0  0  0  0  0  0  0  0  0  0
   -6.2187    6.9533    0.0000 C   0  0  0  0  0  0  0  0  0  0  0  0
   -4.8705    6.2958    0.0000 C   0  0  0  0  0  0  0  0  0  0  0  0
   -4.7658    4.7994    0.0000 N   0  0  0  0  0  0  0  0  0  0  0  0
   -3.9271    1.7925    0.0000 N   0  0  0  0  0  0  0  0  0  0  0  0
   -4.3906    0.3659    0.0000 C   0  0  0  0  0  0  0  0  0  0  0  0
   -3.3607   -0.6492    0.0000 C   0  0  0  0  0  0  0  0  0  0  0  0
   -2.7135   -1.9423    0.0000 C   0  0  0  0  0  0  0  0  0  0  0  0
   -4.1807   -1.6305    0.0000 N   0  0  0  0  0  0  0  0  0  0  0  0
   -3.1771   -0.5158    0.0000 C   0  0  0  0  0  0  0  0  0  0  0  0
   -1.0607    0.0000    0.0000 O   0  0  0  0  0  0  0  0  0  0  0  0
    1.8169   -3.2171    0.0000 C   0  0  0  0  0  0  0  0  0  0  0  0
    1.8839   -9.7551    0.0000 H   0  0  0  0  0  0  0  0  0  0  0  0
   -0.0965   -8.9948    0.0000 H   0  0  0  0  0  0  0  0  0  0  0  0
    2.6441   -7.7746    0.0000 H   0  0  0  0  0  0  0  0  0  0  0  0
   -0.8281   -6.8576    0.0000 H   0  0  0  0  0  0  0  0  0  0  0  0
    0.4484   -4.7779    0.0000 H   0  0  0  0  0  0  0  0  0  0  0  0
    2.7589   -6.6826    0.0000 H   0  0  0  0  0  0  0  0  0  0  0  0
    4.0235   -6.2405    0.0000 H   0  0  0  0  0  0  0  0  0  0  0  0
    5.3743   -4.3813    0.0000 H   0  0  0  0  0  0  0  0  0  0  0  0
    5.4039   -3.0420    0.0000 H   0  0  0  0  0  0  0  0  0  0  0  0
    6.1691   -1.9698    0.0000 H   0  0  0  0  0  0  0  0  0  0  0  0
    6.3840   -1.6740    0.0000 H   0  0  0  0  0  0  0  0  0  0  0  0
    6.7140    2.2472    0.0000 H   0  0  0  0  0  0  0  0  0  0  0  0
    3.9733    1.0269    0.0000 H   0  0  0  0  0  0  0  0  0  0  0  0
    3.9999   -0.1816    0.0000 H   0  0  0  0  0  0  0  0  0  0  0  0
    3.7041    0.0333    0.0000 H   0  0  0  0  0  0  0  0  0  0  0  0
    2.7864    0.7000    0.0000 H   0  0  0  0  0  0  0  0  0  0  0  0
   -0.4143    1.6338    0.0000 H   0  0  0  0  0  0  0  0  0  0  0  0
    1.4315    1.6982    0.0000 H   0  0  0  0  0  0  0  0  0  0  0  0
   -0.1773   -0.8272    0.0000 H   0  0  0  0  0  0  0  0  0  0  0  0
    2.3306   -1.9986    0.0000 H   0  0  0  0  0  0  0  0  0  0  0  0
   -0.2153   -0.5875    0.0000 H   0  0  0  0  0  0  0  0  0  0  0  0
    0.8169   -4.0821    0.0000 H   0  0  0  0  0  0  0  0  0  0  0  0
   -1.7634   -5.2511    0.0000 H   0  0  0  0  0  0  0  0  0  0  0  0
    0.4303   -4.7647    0.0000 H   0  0  0  0  0  0  0  0  0  0  0  0
   -2.1936   -3.3104    0.0000 H   0  0  0  0  0  0  0  0  0  0  0  0
   -1.8475   -3.3018    0.0000 H   0  0  0  0  0  0  0  0  0  0  0  0
    0.3630   -2.5161    0.0000 H   0  0  0  0  0  0  0  0  0  0  0  0
    1.9841    1.1820    0.0000 H   0  0  0  0  0  0  0  0  0  0  0  0
    2.4310   -0.6100    0.0000 H   0  0  0  0  0  0  0  0  0  0  0  0
    0.0000    2.5607    0.0000 H   0  0  0  0  0  0  0  0  0  0  0  0
   -1.3181    4.1705    0.0000 H   0  0  0  0  0  0  0  0  0  0  0  0
   -0.0000    3.5559    0.0000 H   0  0  0  0  0  0  0  0  0  0  0  0
   -2.2500    4.1008    0.0000 H   0  0  0  0  0  0  0  0  0  0  0  0
   -5.7560    3.8130    0.0000 H   0  0  0  0  0  0  0  0  0  0  0  0
   -4.2561    1.2148    0.0000 H   0  0  0  0  0  0  0  0  0  0  0  0
   -5.5721    0.0623    0.0000 H   0  0  0  0  0  0  0  0  0  0  0  0
   -7.0925   -0.5937    0.0000 H   0  0  0  0  0  0  0  0  0  0  0  0
   -8.9278    0.5755    0.0000 H   0  0  0  0  0  0  0  0  0  0  0  0
  -10.1824    3.1805    0.0000 H   0  0  0  0  0  0  0  0  0  0  0  0
   -8.5059    4.2486    0.0000 H   0  0  0  0  0  0  0  0  0  0  0  0
   -9.3266    1.3863    0.0000 H   0  0  0  0  0  0  0  0  0  0  0  0
   -5.9835    5.0500    0.0000 H   0  0  0  0  0  0  0  0  0  0  0  0
   -7.8990    4.5188    0.0000 H   0  0  0  0  0  0  0  0  0  0  0  0
   -5.2227    3.2134    0.0000 H   0  0  0  0  0  0  0  0  0  0  0  0
   -1.7716    4.9826    0.0000 H   0  0  0  0  0  0  0  0  0  0  0  0
   -1.8778    6.5050    0.0000 H   0  0  0  0  0  0  0  0  0  0  0  0
   -3.5834    9.3931    0.0000 H   0  0  0  0  0  0  0  0  0  0  0  0
   -1.9824    8.0014    0.0000 H   0  0  0  0  0  0  0  0  0  0  0  0
   -5.4635    9.2104    0.0000 H   0  0  0  0  0  0  0  0  0  0  0  0
   -7.2607    8.0323    0.0000 H   0  0  0  0  0  0  0  0  0  0  0  0
   -7.1003    5.7398    0.0000 H   0  0  0  0  0  0  0  0  0  0  0  0
   -5.3760    2.1806    0.0000 H   0  0  0  0  0  0  0  0  0  0  0  0
   -5.8794    0.1831    0.0000 H   0  0  0  0  0  0  0  0  0  0  0  0
   -4.7220   -2.3327    0.0000 H   0  0  0  0  0  0  0  0  0  0  0  0
   -5.4271   -1.0607    0.0000 H   0  0  0  0  0  0  0  0  0  0  0  0
   -5.6073   -2.0940    0.0000 H   0  0  0  0  0  0  0  0  0  0  0  0
   -4.6586   -0.2812    0.0000 H   0  0  0  0  0  0  0  0  0  0  0  0
    2.0775   -1.7399    0.0000 H   0  0  0  0  0  0  0  0  0  0  0  0
    0.4166   -3.7546    0.0000 H   0  0  0  0  0  0  0  0  0  0  0  0
  1  2  1  0
  2  3  1  0
  3  4  1  0
  4  5  1  0
  5  6  1  0
  6  7  1  0
  7  8  1  0
  8  9  1  0
  9 10  1  0
 10 11  1  0
  7 12  1  0
 12 13  1  0
 13 14  1  0
 13 15  1  0
 15 16  1  0
 16 17  1  0
 16 18  1  0
 18 19  1  0
 19 20  1  0
 20 21  1  0
 21 22  1  0
 22 23  1  0
 23 24  1  0
 24 25  1  0
 25 26  1  0
 26 27  1  0
 27 28  1  0
 28 29  1  0
 28 30  1  0
 24 31  1  0
 31 32  1  0
 32 33  1  0
 33 34  1  0
 34 35  1  0
 35 36  1  0
 36 37  1  0
 23 38  1  0
 38 39  1  0
 39 40  1  0
 40 41  1  0
 41 42  1  0
 42 43  1  0
 21 44  1  0
  6 45  1  0
  6  4  1  0
 41 18  1  0
 45  4  1  0
 44 19  1  0
 37 24  1  0
 43 39  1  0
 28 26  1  0
 37 31  1  0
 43 41  1  0
 36 32  1  0
 36 34  1  0
  1 46  1  0
  1 47  1  0
  1 48  1  0
  2 49  1  0
  3 50  1  0
  3 51  1  0
  5 52  1  0
  5 53  1  0
  7 54  1  0
  8 55  1  0
  8 56  1  0
 10 57  1  0
 10 58  1  0
 12 59  1  0
 12 60  1  0
 13 61  1  0
 14 62  1  0
 14 63  1  0
 14 64  1  0
 15 65  1  0
 15 66  1  0
 16 67  1  0
 17 68  1  0
 17 69  1  0
 17 70  1  0
 18 71  1  0
 19 72  1  0
 20 73  1  0
 20 74  1  0
 21 75  1  0
 22 76  1  0
 22 77  1  0
 23 78  1  0
 25 79  1  0
 25 80  1  0
 26 81  1  0
 27 82  1  0
 27 83  1  0
 29 84  1  0
 29 85  1  0
 29 86  1  0
 30 87  1  0
 30 88  1  0
 30 89  1  0
 31 90  1  0
 32 91  1  0
 33 92  1  0
 33 93  1  0
 34 94  1  0
 35 95  1  0
 35 96  1  0
 38 97  1  0
 39 98  1  0
 40 99  1  0
 40100  1  0
 42101  1  0
 43102  1  0
 45103  1  0
 45104  1  0
M  END
$$$$
