
     RDKit          2D

 54 62  0  0  0  0  0  0  0  0999 V2000
   -3.2963   -1.8642    0.0000 C   0  0  0  0  0  0  0  0  0  0  0  0
   -2.3321   -3.0132    0.0000 C   0  0  0  0  0  0  0  0  0  0  0  0
   -1.3679   -4.1623    0.0000 C   0  0  0  0  0  0  0  0  0  0  0  0
   -0.4037   -5.3114    0.0000 O   0  0  0  0  0  0  0  0  0  0  0  0
   -0.9167   -6.7209    0.0000 C   0  0  0  0  0  0  0  0  0  0  0  0
   -2.3263   -6.2079    0.0000 C   0  0  0  0  0  0  0  0  0  0  0  0
   -3.7358   -5.6948    0.0000 C   0  0  0  0  0  0  0  0  0  0  0  0
   -5.1454   -5.1818    0.0000 C   0  0  0  0  0  0  0  0  0  0  0  0
   -6.5549   -4.6688    0.0000 C   0  0  0  0  0  0  0  0  0  0  0  0
   -6.2944   -6.1460    0.0000 C   0  0  0  0  0  0  0  0  0  0  0  0
   -5.4058   -3.7046    0.0000 C   0  0  0  0  0  0  0  0  0  0  0  0
    0.4928   -7.2339    0.0000 C   0  0  0  0  0  0  0  0  0  0  0  0
    1.9023   -7.7470    0.0000 C   0  0  0  0  0  0  0  0  0  0  0  0
    1.6419   -9.2242    0.0000 C   0  0  0  0  0  0  0  0  0  0  0  0
    2.7909  -10.1883    0.0000 C   0  0  0  0  0  0  0  0  0  0  0  0
    4.2005   -9.6753    0.0000 C   0  0  0  0  0  0  0  0  0  0  0  0
    3.0514   -8.7111    0.0000 C   0  0  0  0  0  0  0  0  0  0  0  0
   -1.1830   -2.0490    0.0000 C   0  0  0  0  0  0  0  0  0  0  0  0
   -1.9330   -0.7500    0.0000 C   0  0  0  0  0  0  0  0  0  0  0  0
   -3.3819   -1.1382    0.0000 C   0  0  0  0  0  0  0  0  0  0  0  0
   -1.9330    0.7500    0.0000 C   0  0  0  0  0  0  0  0  0  0  0  0
   -0.4330    0.7500    0.0000 C   0  0  0  0  0  0  0  0  0  0  0  0
    0.8660    0.0000    0.0000 C   0  0  0  0  0  0  0  0  0  0  0  0
   -0.4330   -0.7500    0.0000 C   0  0  0  0  0  0  0  0  0  0  0  0
   -4.2604   -0.7151    0.0000 H   0  0  0  0  0  0  0  0  0  0  0  0
   -2.8277   -1.2192    0.0000 H   0  0  0  0  0  0  0  0  0  0  0  0
   -4.5543   -2.6811    0.0000 H   0  0  0  0  0  0  0  0  0  0  0  0
   -3.5901   -3.8301    0.0000 H   0  0  0  0  0  0  0  0  0  0  0  0
   -2.6259   -4.9792    0.0000 H   0  0  0  0  0  0  0  0  0  0  0  0
   -0.1099   -3.3454    0.0000 H   0  0  0  0  0  0  0  0  0  0  0  0
   -1.4298   -8.1304    0.0000 H   0  0  0  0  0  0  0  0  0  0  0  0
   -2.8393   -7.6174    0.0000 H   0  0  0  0  0  0  0  0  0  0  0  0
   -2.3526   -4.7081    0.0000 H   0  0  0  0  0  0  0  0  0  0  0  0
   -4.2489   -7.1044    0.0000 H   0  0  0  0  0  0  0  0  0  0  0  0
   -3.3984   -4.2333    0.0000 H   0  0  0  0  0  0  0  0  0  0  0  0
   -7.9644   -4.1557    0.0000 H   0  0  0  0  0  0  0  0  0  0  0  0
   -6.8075   -7.5555    0.0000 H   0  0  0  0  0  0  0  0  0  0  0  0
   -5.2491   -2.2128    0.0000 H   0  0  0  0  0  0  0  0  0  0  0  0
   -0.0202   -8.6435    0.0000 H   0  0  0  0  0  0  0  0  0  0  0  0
    1.0058   -5.8244    0.0000 H   0  0  0  0  0  0  0  0  0  0  0  0
    2.6523   -6.4479    0.0000 H   0  0  0  0  0  0  0  0  0  0  0  0
    0.2323   -9.7372    0.0000 H   0  0  0  0  0  0  0  0  0  0  0  0
    2.5305  -11.6656    0.0000 H   0  0  0  0  0  0  0  0  0  0  0  0
    4.9505  -10.9744    0.0000 H   0  0  0  0  0  0  0  0  0  0  0  0
    5.3495   -8.7111    0.0000 H   0  0  0  0  0  0  0  0  0  0  0  0
    0.0750   -2.8660    0.0000 H   0  0  0  0  0  0  0  0  0  0  0  0
   -4.8673   -1.3469    0.0000 H   0  0  0  0  0  0  0  0  0  0  0  0
   -3.9438    0.2525    0.0000 H   0  0  0  0  0  0  0  0  0  0  0  0
   -3.7195   -2.5997    0.0000 H   0  0  0  0  0  0  0  0  0  0  0  0
   -1.9330    2.2500    0.0000 H   0  0  0  0  0  0  0  0  0  0  0  0
   -3.4218    0.9328    0.0000 H   0  0  0  0  0  0  0  0  0  0  0  0
   -0.0448    2.1989    0.0000 H   0  0  0  0  0  0  0  0  0  0  0  0
    1.8302    1.1491    0.0000 H   0  0  0  0  0  0  0  0  0  0  0  0
    1.8302   -1.1491    0.0000 H   0  0  0  0  0  0  0  0  0  0  0  0
  1  2  1  0
  2  3  1  0
  3  4  1  0
  4  5  1  0
  5  6  1  0
  6  7  1  0
  7  8  1  0
  8  9  1  0
  9 10  1  0
 10 11  1  0
  5 12  1  0
 12 13  1  0
 13 14  1  0
 14 15  1  0
 15 16  1  0
 16 17  1  0
  2 18  1  0
 18 19  1  0
 19 20  1  0
 19 21  1  0
 21 22  1  0
 22 23  1  0
 23 24  1  0
 10  8  1  0
 17 13  1  0
 24 18  1  0
 11  8  1  0
 17 14  1  0
 24 19  1  0
 11  9  1  0
 17 15  1  0
 24 22  1  0
  1 25  1  0
  1 26  1  0
  1 27  1  0
  2 28  1  0
  3 29  1  0
  3 30  1  0
  5 31  1  0
  6 32  1  0
  6 33  1  0
  7 34  1  0
  7 35  1  0
  9 36  1  0
 10 37  1  0
 11 38  1  0
 12 39  1  0
 12 40  1  0
 13 41  1  0
 14 42  1  0
 15 43  1  0
 16 44  1  0
 16 45  1  0
 18 46  1  0
 20 47  1  0
 20 48  1  0
 20 49  1  0
 21 50  1  0
 21 51  1  0
 22 52  1  0
 23 53  1  0
 23 54  1  0
M  END
$$$$
