
     RDKit          2D

 64 69  0  0  0  0  0  0  0  0999 V2000
  -12.8805    1.2313    0.0000 C   0  0  0  0  0  0  0  0  0  0  0  0
  -11.6670    0.3497    0.0000 C   0  0  0  0  0  0  0  0  0  0  0  0
  -10.4535   -0.5320    0.0000 C   0  0  0  0  0  0  0  0  0  0  0  0
   -9.2399   -1.4137    0.0000 C   0  0  0  0  0  0  0  0  0  0  0  0
   -8.0264   -2.2954    0.0000 C   0  0  0  0  0  0  0  0  0  0  0  0
   -6.8129   -3.1771    0.0000 C   0  0  0  0  0  0  0  0  0  0  0  0
   -5.5994   -4.0587    0.0000 C   0  0  0  0  0  0  0  0  0  0  0  0
   -5.9312   -1.9635    0.0000 C   0  0  0  0  0  0  0  0  0  0  0  0
   -5.0495   -0.7500    0.0000 C   0  0  0  0  0  0  0  0  0  0  0  0
   -5.0495    0.7500    0.0000 N   0  0  0  0  0  0  0  0  0  0  0  0
   -4.1679    1.9635    0.0000 C   0  0  0  0  0  0  0  0  0  0  0  0
   -2.7413    2.4271    0.0000 C   0  0  0  0  0  0  0  0  0  0  0  0
   -3.6230    3.6406    0.0000 C   0  0  0  0  0  0  0  0  0  0  0  0
   -1.3147    1.9635    0.0000 C   0  0  0  0  0  0  0  0  0  0  0  0
   -0.4330    0.7500    0.0000 C   0  0  0  0  0  0  0  0  0  0  0  0
    0.8660    0.0000    0.0000 C   0  0  0  0  0  0  0  0  0  0  0  0
   -0.4330   -0.7500    0.0000 C   0  0  0  0  0  0  0  0  0  0  0  0
   -1.3147   -1.9635    0.0000 C   0  0  0  0  0  0  0  0  0  0  0  0
   -2.7413   -2.4271    0.0000 C   0  0  0  0  0  0  0  0  0  0  0  0
   -4.1679   -1.9635    0.0000 C   0  0  0  0  0  0  0  0  0  0  0  0
   -3.8560   -3.4307    0.0000 C   0  0  0  0  0  0  0  0  0  0  0  0
   -4.9707   -4.4344    0.0000 C   0  0  0  0  0  0  0  0  0  0  0  0
   -4.6588   -5.9017    0.0000 C   0  0  0  0  0  0  0  0  0  0  0  0
   -3.2323   -6.3652    0.0000 C   0  0  0  0  0  0  0  0  0  0  0  0
   -3.5441   -4.8980    0.0000 C   0  0  0  0  0  0  0  0  0  0  0  0
  -14.0940    2.1130    0.0000 H   0  0  0  0  0  0  0  0  0  0  0  0
  -11.9988    2.4449    0.0000 H   0  0  0  0  0  0  0  0  0  0  0  0
  -13.7622    0.0178    0.0000 H   0  0  0  0  0  0  0  0  0  0  0  0
  -10.7853    1.5632    0.0000 H   0  0  0  0  0  0  0  0  0  0  0  0
  -12.5487   -0.8639    0.0000 H   0  0  0  0  0  0  0  0  0  0  0  0
   -9.5718    0.6815    0.0000 H   0  0  0  0  0  0  0  0  0  0  0  0
  -11.3351   -1.7455    0.0000 H   0  0  0  0  0  0  0  0  0  0  0  0
   -8.3583   -0.2002    0.0000 H   0  0  0  0  0  0  0  0  0  0  0  0
  -10.1216   -2.6272    0.0000 H   0  0  0  0  0  0  0  0  0  0  0  0
   -7.2992   -0.9834    0.0000 H   0  0  0  0  0  0  0  0  0  0  0  0
   -8.9081   -3.5089    0.0000 H   0  0  0  0  0  0  0  0  0  0  0  0
   -7.6946   -4.3906    0.0000 H   0  0  0  0  0  0  0  0  0  0  0  0
   -5.0870   -4.6694    0.0000 H   0  0  0  0  0  0  0  0  0  0  0  0
   -6.4810   -5.2723    0.0000 H   0  0  0  0  0  0  0  0  0  0  0  0
   -4.7177   -2.8452    0.0000 H   0  0  0  0  0  0  0  0  0  0  0  0
   -7.0282   -0.9405    0.0000 H   0  0  0  0  0  0  0  0  0  0  0  0
   -4.7177   -2.8452    0.0000 H   0  0  0  0  0  0  0  0  0  0  0  0
   -6.4761   -0.2865    0.0000 H   0  0  0  0  0  0  0  0  0  0  0  0
   -6.4761    1.2135    0.0000 H   0  0  0  0  0  0  0  0  0  0  0  0
   -5.6403    2.2497    0.0000 H   0  0  0  0  0  0  0  0  0  0  0  0
   -4.5308    3.4189    0.0000 H   0  0  0  0  0  0  0  0  0  0  0  0
   -2.0141    3.7390    0.0000 H   0  0  0  0  0  0  0  0  0  0  0  0
   -4.5046    4.8541    0.0000 H   0  0  0  0  0  0  0  0  0  0  0  0
   -2.4094    4.5223    0.0000 H   0  0  0  0  0  0  0  0  0  0  0  0
   -4.9349    2.9134    0.0000 H   0  0  0  0  0  0  0  0  0  0  0  0
   -1.1318    3.4523    0.0000 H   0  0  0  0  0  0  0  0  0  0  0  0
    0.0448    2.5975    0.0000 H   0  0  0  0  0  0  0  0  0  0  0  0
    0.6991    1.7341    0.0000 H   0  0  0  0  0  0  0  0  0  0  0  0
    1.8302    1.1491    0.0000 H   0  0  0  0  0  0  0  0  0  0  0  0
    1.8302   -1.1491    0.0000 H   0  0  0  0  0  0  0  0  0  0  0  0
    0.6991   -1.7341    0.0000 H   0  0  0  0  0  0  0  0  0  0  0  0
    0.0448   -2.5975    0.0000 H   0  0  0  0  0  0  0  0  0  0  0  0
   -1.1318   -3.4523    0.0000 H   0  0  0  0  0  0  0  0  0  0  0  0
   -2.1552   -3.8078    0.0000 H   0  0  0  0  0  0  0  0  0  0  0  0
   -5.3498   -2.8871    0.0000 H   0  0  0  0  0  0  0  0  0  0  0  0
   -6.3973   -3.9709    0.0000 H   0  0  0  0  0  0  0  0  0  0  0  0
   -5.7736   -6.9054    0.0000 H   0  0  0  0  0  0  0  0  0  0  0  0
   -3.4410   -7.8506    0.0000 H   0  0  0  0  0  0  0  0  0  0  0  0
   -1.7332   -6.3128    0.0000 H   0  0  0  0  0  0  0  0  0  0  0  0
  1  2  1  0
  2  3  1  0
  3  4  1  0
  4  5  1  0
  5  6  1  0
  6  7  1  0
  6  8  1  0
  8  9  1  0
  9 10  1  0
 10 11  1  0
 11 12  1  0
 12 13  1  0
 12 14  1  0
 14 15  1  0
 15 16  1  0
 16 17  1  0
 17 18  1  0
 18 19  1  0
 19 20  1  0
 20 21  1  0
 21 22  1  0
 22 23  1  0
 23 24  1  0
 24 25  1  0
 20  9  1  0
 25 21  1  0
 17 15  1  0
 21 19  1  0
 25 22  1  0
 25 23  1  0
  1 26  1  0
  1 27  1  0
  1 28  1  0
  2 29  1  0
  2 30  1  0
  3 31  1  0
  3 32  1  0
  4 33  1  0
  4 34  1  0
  5 35  1  0
  5 36  1  0
  6 37  1  0
  7 38  1  0
  7 39  1  0
  7 40  1  0
  8 41  1  0
  8 42  1  0
  9 43  1  0
 10 44  1  0
 11 45  1  0
 11 46  1  0
 12 47  1  0
 13 48  1  0
 13 49  1  0
 13 50  1  0
 14 51  1  0
 14 52  1  0
 15 53  1  0
 16 54  1  0
 16 55  1  0
 17 56  1  0
 18 57  1  0
 18 58  1  0
 19 59  1  0
 20 60  1  0
 22 61  1  0
 23 62  1  0
 24 63  1  0
 24 64  1  0
M  END
$$$$
