
     RDKit          2D

 35 37  0  0  0  0  0  0  0  0999 V2000
    0.5179   -5.3971    0.0000 C   0  0  0  0  0  0  0  0  0  0  0  0
   -0.2321   -4.0981    0.0000 C   0  0  0  0  0  0  0  0  0  0  0  0
   -0.9821   -2.7990    0.0000 C   0  0  0  0  0  0  0  0  0  0  0  0
   -1.7321   -1.5000    0.0000 C   0  0  0  0  0  0  0  0  0  0  0  0
   -1.4608   -0.5540    0.0000 O   0  0  0  0  0  0  0  0  0  0  0  0
   -3.2321   -1.5000    0.0000 O   0  0  0  0  0  0  0  0  0  0  0  0
    0.3170   -2.0490    0.0000 C   0  0  0  0  0  0  0  0  0  0  0  0
    1.6160   -1.2990    0.0000 C   0  0  0  0  0  0  0  0  0  0  0  0
    0.8660    0.0000    0.0000 C   0  0  0  0  0  0  0  0  0  0  0  0
   -0.4330    0.7500    0.0000 C   0  0  0  0  0  0  0  0  0  0  0  0
   -1.9102    1.0105    0.0000 C   0  0  0  0  0  0  0  0  0  0  0  0
   -3.2093    1.7605    0.0000 C   0  0  0  0  0  0  0  0  0  0  0  0
   -1.9102    2.5105    0.0000 C   0  0  0  0  0  0  0  0  0  0  0  0
   -2.4233    3.9200    0.0000 C   0  0  0  0  0  0  0  0  0  0  0  0
   -0.4330   -0.7500    0.0000 C   0  0  0  0  0  0  0  0  0  0  0  0
    1.2679   -6.6962    0.0000 H   0  0  0  0  0  0  0  0  0  0  0  0
   -0.7811   -6.1471    0.0000 H   0  0  0  0  0  0  0  0  0  0  0  0
    1.8170   -4.6471    0.0000 H   0  0  0  0  0  0  0  0  0  0  0  0
    0.5833   -3.7520    0.0000 H   0  0  0  0  0  0  0  0  0  0  0  0
   -1.5311   -4.8481    0.0000 H   0  0  0  0  0  0  0  0  0  0  0  0
   -2.2811   -3.5490    0.0000 H   0  0  0  0  0  0  0  0  0  0  0  0
   -3.9821   -2.7990    0.0000 H   0  0  0  0  0  0  0  0  0  0  0  0
    0.8501   -2.7564    0.0000 H   0  0  0  0  0  0  0  0  0  0  0  0
    2.3660   -2.5981    0.0000 H   0  0  0  0  0  0  0  0  0  0  0  0
    2.9151   -0.5490    0.0000 H   0  0  0  0  0  0  0  0  0  0  0  0
    1.9267    1.0607    0.0000 H   0  0  0  0  0  0  0  0  0  0  0  0
    0.2480    2.0865    0.0000 H   0  0  0  0  0  0  0  0  0  0  0  0
   -2.4233   -0.3991    0.0000 H   0  0  0  0  0  0  0  0  0  0  0  0
   -4.1734    0.6114    0.0000 H   0  0  0  0  0  0  0  0  0  0  0  0
   -4.1966    2.6811    0.0000 H   0  0  0  0  0  0  0  0  0  0  0  0
   -0.4758    2.9491    0.0000 H   0  0  0  0  0  0  0  0  0  0  0  0
   -2.9363    5.3296    0.0000 H   0  0  0  0  0  0  0  0  0  0  0  0
   -1.0137    4.4330    0.0000 H   0  0  0  0  0  0  0  0  0  0  0  0
   -3.7387    3.6164    0.0000 H   0  0  0  0  0  0  0  0  0  0  0  0
   -1.2301   -0.7639    0.0000 H   0  0  0  0  0  0  0  0  0  0  0  0
  1  2  1  0
  2  3  1  0
  3  4  1  0
  4  5  2  0
  4  6  1  0
  3  7  1  0
  7  8  1  0
  8  9  1  0
  9 10  1  0
 10 11  1  0
 11 12  1  0
 12 13  1  0
 13 14  1  0
 10 15  1  0
 15  7  1  0
 15  9  1  0
 13 11  1  0
  1 16  1  0
  1 17  1  0
  1 18  1  0
  2 19  1  0
  2 20  1  0
  3 21  1  0
  6 22  1  0
  7 23  1  0
  8 24  1  0
  8 25  1  0
  9 26  1  0
 10 27  1  0
 11 28  1  0
 12 29  1  0
 12 30  1  0
 13 31  1  0
 14 32  1  0
 14 33  1  0
 14 34  1  0
 15 35  1  0
M  END
$$$$
