
     RDKit          2D

 63 65  0  0  0  0  0  0  0  0999 V2000
   -4.5702   -4.9786    0.0000 C   0  0  0  0  0  0  0  0  0  0  0  0
   -4.0571   -3.5691    0.0000 C   0  0  0  0  0  0  0  0  0  0  0  0
   -3.5441   -2.1595    0.0000 C   0  0  0  0  0  0  0  0  0  0  0  0
   -3.0311   -0.7500    0.0000 C   0  0  0  0  0  0  0  0  0  0  0  0
   -3.0311    0.7500    0.0000 C   0  0  0  0  0  0  0  0  0  0  0  0
   -1.7321    1.5000    0.0000 C   0  0  0  0  0  0  0  0  0  0  0  0
   -2.6962    2.6491    0.0000 O   0  0  0  0  0  0  0  0  0  0  0  0
   -0.4330    0.7500    0.0000 C   0  0  0  0  0  0  0  0  0  0  0  0
    0.8660    0.0000    0.0000 C   0  0  0  0  0  0  0  0  0  0  0  0
    1.8302    1.1491    0.0000 C   0  0  0  0  0  0  0  0  0  0  0  0
    2.7944    2.2981    0.0000 O   0  0  0  0  0  0  0  0  0  0  0  0
   -0.4330   -0.7500    0.0000 C   0  0  0  0  0  0  0  0  0  0  0  0
   -1.7321   -1.5000    0.0000 C   0  0  0  0  0  0  0  0  0  0  0  0
   -0.7679   -2.6491    0.0000 C   0  0  0  0  0  0  0  0  0  0  0  0
    0.1963   -3.7981    0.0000 N   0  0  0  0  0  0  0  0  0  0  0  0
    1.6059   -4.3112    0.0000 C   0  0  0  0  0  0  0  0  0  0  0  0
    2.3559   -3.0121    0.0000 C   0  0  0  0  0  0  0  0  0  0  0  0
    3.1059   -1.7131    0.0000 C   0  0  0  0  0  0  0  0  0  0  0  0
    3.8559   -0.4140    0.0000 C   0  0  0  0  0  0  0  0  0  0  0  0
    4.4049   -2.4631    0.0000 O   0  0  0  0  0  0  0  0  0  0  0  0
    5.7039   -1.7131    0.0000 O   0  0  0  0  0  0  0  0  0  0  0  0
    0.4568   -5.2753    0.0000 C   0  0  0  0  0  0  0  0  0  0  0  0
    1.2068   -6.5744    0.0000 C   0  0  0  0  0  0  0  0  0  0  0  0
   -0.9528   -5.7884    0.0000 C   0  0  0  0  0  0  0  0  0  0  0  0
   -2.3623   -6.3014    0.0000 C   0  0  0  0  0  0  0  0  0  0  0  0
   -0.4397   -7.1979    0.0000 O   0  0  0  0  0  0  0  0  0  0  0  0
   -5.0832   -6.3882    0.0000 H   0  0  0  0  0  0  0  0  0  0  0  0
   -5.9797   -4.4656    0.0000 H   0  0  0  0  0  0  0  0  0  0  0  0
   -3.1086   -5.3160    0.0000 H   0  0  0  0  0  0  0  0  0  0  0  0
   -2.6476   -4.0821    0.0000 H   0  0  0  0  0  0  0  0  0  0  0  0
   -5.4667   -3.0560    0.0000 H   0  0  0  0  0  0  0  0  0  0  0  0
   -2.8339   -2.5215    0.0000 H   0  0  0  0  0  0  0  0  0  0  0  0
   -4.9537   -1.6465    0.0000 H   0  0  0  0  0  0  0  0  0  0  0  0
   -4.5083   -0.4895    0.0000 H   0  0  0  0  0  0  0  0  0  0  0  0
   -4.5083    0.4895    0.0000 H   0  0  0  0  0  0  0  0  0  0  0  0
   -3.5441    2.1595    0.0000 H   0  0  0  0  0  0  0  0  0  0  0  0
   -0.7679    2.6491    0.0000 H   0  0  0  0  0  0  0  0  0  0  0  0
   -2.1832    4.0586    0.0000 H   0  0  0  0  0  0  0  0  0  0  0  0
    0.0417    1.8684    0.0000 H   0  0  0  0  0  0  0  0  0  0  0  0
    1.6830   -1.2580    0.0000 H   0  0  0  0  0  0  0  0  0  0  0  0
    1.0016    2.0377    0.0000 H   0  0  0  0  0  0  0  0  0  0  0  0
    2.8532    0.0520    0.0000 H   0  0  0  0  0  0  0  0  0  0  0  0
    2.2814    3.7077    0.0000 H   0  0  0  0  0  0  0  0  0  0  0  0
   -1.4751    0.3290    0.0000 H   0  0  0  0  0  0  0  0  0  0  0  0
   -2.1662   -2.1686    0.0000 H   0  0  0  0  0  0  0  0  0  0  0  0
   -1.9169   -3.6132    0.0000 H   0  0  0  0  0  0  0  0  0  0  0  0
    0.2551   -1.5520    0.0000 H   0  0  0  0  0  0  0  0  0  0  0  0
    2.8639   -5.1281    0.0000 H   0  0  0  0  0  0  0  0  0  0  0  0
    3.6549   -3.7621    0.0000 H   0  0  0  0  0  0  0  0  0  0  0  0
    1.1579   -2.1094    0.0000 H   0  0  0  0  0  0  0  0  0  0  0  0
    1.7251   -1.1270    0.0000 H   0  0  0  0  0  0  0  0  0  0  0  0
    4.6059    0.8850    0.0000 H   0  0  0  0  0  0  0  0  0  0  0  0
    5.2978   -0.8274    0.0000 H   0  0  0  0  0  0  0  0  0  0  0  0
    2.4751    0.1720    0.0000 H   0  0  0  0  0  0  0  0  0  0  0  0
    7.0030   -2.4631    0.0000 H   0  0  0  0  0  0  0  0  0  0  0  0
    1.9568   -7.8734    0.0000 H   0  0  0  0  0  0  0  0  0  0  0  0
    0.1278   -7.6164    0.0000 H   0  0  0  0  0  0  0  0  0  0  0  0
    2.5876   -5.9883    0.0000 H   0  0  0  0  0  0  0  0  0  0  0  0
   -1.6338   -4.4519    0.0000 H   0  0  0  0  0  0  0  0  0  0  0  0
   -3.7718   -6.8144    0.0000 H   0  0  0  0  0  0  0  0  0  0  0  0
   -2.0249   -7.7630    0.0000 H   0  0  0  0  0  0  0  0  0  0  0  0
   -2.5190   -4.8096    0.0000 H   0  0  0  0  0  0  0  0  0  0  0  0
   -1.2566   -8.4559    0.0000 H   0  0  0  0  0  0  0  0  0  0  0  0
  1  2  1  0
  2  3  1  0
  3  4  1  0
  4  5  1  0
  5  6  1  0
  6  7  1  0
  6  8  1  0
  8  9  1  0
  9 10  1  0
 10 11  1  0
  9 12  1  0
 12 13  1  0
 13 14  1  0
 14 15  1  0
 15 16  1  0
 16 17  1  0
 17 18  1  0
 18 19  1  0
 18 20  1  0
 20 21  1  0
 16 22  1  0
 22 23  1  6
 22 24  1  0
 24 25  1  0
 24 26  1  0
 13  4  1  0
 22 15  1  0
 12  8  1  0
  1 27  1  0
  1 28  1  0
  1 29  1  0
  2 30  1  0
  2 31  1  0
  3 32  1  0
  3 33  1  0
  4 34  1  1
  5 35  1  0
  5 36  1  0
  6 37  1  1
  7 38  1  0
  8 39  1  1
  9 40  1  1
 10 41  1  0
 10 42  1  0
 11 43  1  0
 12 44  1  6
 13 45  1  6
 14 46  1  0
 14 47  1  0
 16 48  1  6
 17 49  1  0
 17 50  1  0
 18 51  1  6
 19 52  1  0
 19 53  1  0
 19 54  1  0
 21 55  1  0
 23 56  1  0
 23 57  1  0
 23 58  1  0
 24 59  1  6
 25 60  1  0
 25 61  1  0
 25 62  1  0
 26 63  1  0
M  END
$$$$
