
     RDKit          2D

112114  0  0  0  0  0  0  0  0999 V2000
   -9.2963    0.2919    0.0000 C   0  0  0  0  0  0  0  0  0  0  0  0
   -7.8191    0.0314    0.0000 C   0  0  0  0  0  0  0  0  0  0  0  0
   -6.3419   -0.2291    0.0000 C   0  0  0  0  0  0  0  0  0  0  0  0
   -4.8646   -0.4895    0.0000 C   0  0  0  0  0  0  0  0  0  0  0  0
   -3.3874   -0.7500    0.0000 C   0  0  0  0  0  0  0  0  0  0  0  0
   -1.9102   -1.0105    0.0000 C   0  0  0  0  0  0  0  0  0  0  0  0
   -1.3972    0.3991    0.0000 O   0  0  0  0  0  0  0  0  0  0  0  0
   -0.4330   -0.7500    0.0000 C   0  0  0  0  0  0  0  0  0  0  0  0
    0.0800   -2.1595    0.0000 C   0  0  0  0  0  0  0  0  0  0  0  0
    0.5930   -3.5691    0.0000 C   0  0  0  0  0  0  0  0  0  0  0  0
    1.1061   -4.9786    0.0000 C   0  0  0  0  0  0  0  0  0  0  0  0
    1.6191   -6.3882    0.0000 C   0  0  0  0  0  0  0  0  0  0  0  0
    2.1321   -7.7977    0.0000 C   0  0  0  0  0  0  0  0  0  0  0  0
    2.6452   -9.2072    0.0000 C   0  0  0  0  0  0  0  0  0  0  0  0
    3.5417   -7.2847    0.0000 C   0  0  0  0  0  0  0  0  0  0  0  0
    4.9512   -6.7716    0.0000 C   0  0  0  0  0  0  0  0  0  0  0  0
    6.3608   -6.2586    0.0000 C   0  0  0  0  0  0  0  0  0  0  0  0
    7.7703   -5.7456    0.0000 C   0  0  0  0  0  0  0  0  0  0  0  0
    9.2703   -5.7456    0.0000 C   0  0  0  0  0  0  0  0  0  0  0  0
    8.5203   -7.0446    0.0000 C   0  0  0  0  0  0  0  0  0  0  0  0
    9.6694   -8.0088    0.0000 C   0  0  0  0  0  0  0  0  0  0  0  0
   10.8184   -8.9730    0.0000 C   0  0  0  0  0  0  0  0  0  0  0  0
   11.9675   -9.9372    0.0000 C   0  0  0  0  0  0  0  0  0  0  0  0
   13.1166  -10.9013    0.0000 C   0  0  0  0  0  0  0  0  0  0  0  0
   12.1524  -12.0504    0.0000 O   0  0  0  0  0  0  0  0  0  0  0  0
   12.6654  -13.4599    0.0000 C   0  0  0  0  0  0  0  0  0  0  0  0
   13.1784  -14.8695    0.0000 S   0  0  0  0  0  4  0  0  0  0  0  0
   13.6915  -16.2790    0.0000 C   0  0  0  0  0  0  0  0  0  0  0  0
   14.2045  -17.6886    0.0000 O   0  0  0  0  0  0  0  0  0  0  0  0
   11.7689  -15.3825    0.0000 N   0  0  0  0  0  0  0  0  0  0  0  0
   11.5084  -16.8597    0.0000 C   0  0  0  0  0  0  0  0  0  0  0  0
   11.2480  -18.3369    0.0000 N   0  0  0  0  0  2  0  0  0  0  0  0
    9.8384  -18.8500    0.0000 C   0  0  0  0  0  0  0  0  0  0  0  0
    8.4289  -19.3630    0.0000 N   0  0  0  0  0  2  0  0  0  0  0  0
   10.3514  -20.2595    0.0000 Mg  0  0  0  0  0  2  0  0  0  0  0  0
   10.8645  -21.6690    0.0000 N   0  0  0  0  0  0  0  0  0  0  0  0
   12.3417  -21.9295    0.0000 C   0  0  0  0  0  0  0  0  0  0  0  0
   13.8189  -22.1900    0.0000 C   0  0  0  0  0  0  0  0  0  0  0  0
   14.2656  -11.8655    0.0000 C   0  0  0  0  0  0  0  0  0  0  0  0
   15.6752  -12.3785    0.0000 C   0  0  0  0  0  0  0  0  0  0  0  0
   15.4147  -10.9013    0.0000 C   0  0  0  0  0  0  0  0  0  0  0  0
    5.4642   -8.1812    0.0000 C   0  0  0  0  0  0  0  0  0  0  0  0
    5.9773   -9.5907    0.0000 C   0  0  0  0  0  0  0  0  0  0  0  0
    6.8738   -7.6681    0.0000 O   0  0  0  0  0  0  0  0  0  0  0  0
  -10.7735    0.5524    0.0000 H   0  0  0  0  0  0  0  0  0  0  0  0
   -9.5568   -1.1853    0.0000 H   0  0  0  0  0  0  0  0  0  0  0  0
   -9.0358    1.7691    0.0000 H   0  0  0  0  0  0  0  0  0  0  0  0
   -8.0795   -1.4458    0.0000 H   0  0  0  0  0  0  0  0  0  0  0  0
   -7.5586    1.5086    0.0000 H   0  0  0  0  0  0  0  0  0  0  0  0
   -6.0814    1.2482    0.0000 H   0  0  0  0  0  0  0  0  0  0  0  0
   -6.6023   -1.7063    0.0000 H   0  0  0  0  0  0  0  0  0  0  0  0
   -5.1251   -1.9667    0.0000 H   0  0  0  0  0  0  0  0  0  0  0  0
   -4.6042    0.9877    0.0000 H   0  0  0  0  0  0  0  0  0  0  0  0
   -3.1270    0.7272    0.0000 H   0  0  0  0  0  0  0  0  0  0  0  0
   -3.6479   -2.2272    0.0000 H   0  0  0  0  0  0  0  0  0  0  0  0
   -2.0748   -2.3504    0.0000 H   0  0  0  0  0  0  0  0  0  0  0  0
    0.8660    0.0000    0.0000 H   0  0  0  0  0  0  0  0  0  0  0  0
   -1.1228   -2.7725    0.0000 H   0  0  0  0  0  0  0  0  0  0  0  0
    1.4896   -1.6465    0.0000 H   0  0  0  0  0  0  0  0  0  0  0  0
   -0.8165   -4.0821    0.0000 H   0  0  0  0  0  0  0  0  0  0  0  0
    2.0026   -3.0560    0.0000 H   0  0  0  0  0  0  0  0  0  0  0  0
    2.5156   -4.4656    0.0000 H   0  0  0  0  0  0  0  0  0  0  0  0
   -0.3035   -5.4916    0.0000 H   0  0  0  0  0  0  0  0  0  0  0  0
    0.2096   -6.9012    0.0000 H   0  0  0  0  0  0  0  0  0  0  0  0
    2.4083   -5.9860    0.0000 H   0  0  0  0  0  0  0  0  0  0  0  0
    0.7226   -8.3107    0.0000 H   0  0  0  0  0  0  0  0  0  0  0  0
    3.1582  -10.6168    0.0000 H   0  0  0  0  0  0  0  0  0  0  0  0
    1.2356   -9.7203    0.0000 H   0  0  0  0  0  0  0  0  0  0  0  0
    3.5082   -9.0080    0.0000 H   0  0  0  0  0  0  0  0  0  0  0  0
    3.9438   -8.0738    0.0000 H   0  0  0  0  0  0  0  0  0  0  0  0
    3.3425   -6.4216    0.0000 H   0  0  0  0  0  0  0  0  0  0  0  0
    4.4382   -5.3621    0.0000 H   0  0  0  0  0  0  0  0  0  0  0  0
    6.1394   -5.2997    0.0000 H   0  0  0  0  0  0  0  0  0  0  0  0
    5.9139   -5.3817    0.0000 H   0  0  0  0  0  0  0  0  0  0  0  0
    7.5098   -4.2684    0.0000 H   0  0  0  0  0  0  0  0  0  0  0  0
    9.5308   -4.2684    0.0000 H   0  0  0  0  0  0  0  0  0  0  0  0
   10.7319   -6.0830    0.0000 H   0  0  0  0  0  0  0  0  0  0  0  0
    7.6387   -8.2582    0.0000 H   0  0  0  0  0  0  0  0  0  0  0  0
   10.7664   -6.9858    0.0000 H   0  0  0  0  0  0  0  0  0  0  0  0
    8.8524   -9.2668    0.0000 H   0  0  0  0  0  0  0  0  0  0  0  0
    9.8542  -10.1220    0.0000 H   0  0  0  0  0  0  0  0  0  0  0  0
   11.7826   -7.8239    0.0000 H   0  0  0  0  0  0  0  0  0  0  0  0
   12.9317   -8.7881    0.0000 H   0  0  0  0  0  0  0  0  0  0  0  0
   11.0033  -11.0862    0.0000 H   0  0  0  0  0  0  0  0  0  0  0  0
   13.9335   -9.6433    0.0000 H   0  0  0  0  0  0  0  0  0  0  0  0
   11.2038  -13.7973    0.0000 H   0  0  0  0  0  0  0  0  0  0  0  0
   14.1270  -13.1226    0.0000 H   0  0  0  0  0  0  0  0  0  0  0  0
   14.5880  -14.3565    0.0000 H   0  0  0  0  0  0  0  0  0  0  0  0
   15.1010  -15.7660    0.0000 H   0  0  0  0  0  0  0  0  0  0  0  0
   12.5595  -17.2632    0.0000 H   0  0  0  0  0  0  0  0  0  0  0  0
   15.6817  -17.9490    0.0000 H   0  0  0  0  0  0  0  0  0  0  0  0
   10.5109  -14.5656    0.0000 H   0  0  0  0  0  0  0  0  0  0  0  0
   12.9429  -17.2983    0.0000 H   0  0  0  0  0  0  0  0  0  0  0  0
   10.0312  -16.5993    0.0000 H   0  0  0  0  0  0  0  0  0  0  0  0
    9.3254  -17.4404    0.0000 H   0  0  0  0  0  0  0  0  0  0  0  0
    7.2798  -18.3988    0.0000 H   0  0  0  0  0  0  0  0  0  0  0  0
    9.9003  -22.8181    0.0000 H   0  0  0  0  0  0  0  0  0  0  0  0
   12.6022  -20.4523    0.0000 H   0  0  0  0  0  0  0  0  0  0  0  0
   12.0812  -23.4067    0.0000 H   0  0  0  0  0  0  0  0  0  0  0  0
   15.2961  -22.4505    0.0000 H   0  0  0  0  0  0  0  0  0  0  0  0
   14.0794  -20.7128    0.0000 H   0  0  0  0  0  0  0  0  0  0  0  0
   13.5584  -23.6672    0.0000 H   0  0  0  0  0  0  0  0  0  0  0  0
   13.6796  -13.2463    0.0000 H   0  0  0  0  0  0  0  0  0  0  0  0
   15.4147  -13.8558    0.0000 H   0  0  0  0  0  0  0  0  0  0  0  0
   17.1752  -12.3785    0.0000 H   0  0  0  0  0  0  0  0  0  0  0  0
   16.8242  -10.3883    0.0000 H   0  0  0  0  0  0  0  0  0  0  0  0
   14.8286   -9.5206    0.0000 H   0  0  0  0  0  0  0  0  0  0  0  0
    6.5962   -7.1970    0.0000 H   0  0  0  0  0  0  0  0  0  0  0  0
    6.4903  -11.0003    0.0000 H   0  0  0  0  0  0  0  0  0  0  0  0
    7.4388   -9.2533    0.0000 H   0  0  0  0  0  0  0  0  0  0  0  0
    4.5677  -10.1037    0.0000 H   0  0  0  0  0  0  0  0  0  0  0  0
    7.8968   -8.7652    0.0000 H   0  0  0  0  0  0  0  0  0  0  0  0
  1  2  1  0
  2  3  1  0
  3  4  1  0
  4  5  1  0
  5  6  1  0
  6  7  1  0
  7  8  1  0
  8  9  1  0
  9 10  1  0
 10 11  1  0
 11 12  1  0
 12 13  1  0
 13 14  1  0
 13 15  1  0
 15 16  1  0
 16 17  1  0
 17 18  1  0
 18 19  1  0
 19 20  1  0
 20 21  1  0
 21 22  1  0
 22 23  1  0
 23 24  1  0
 24 25  1  0
 25 26  1  0
 26 27  1  0
 27 28  1  0
 28 29  1  0
 27 30  1  0
 30 31  1  0
 31 32  1  0
 32 33  1  0
 33 34  1  0
 33 35  1  0
 35 36  1  0
 36 37  1  0
 37 38  1  0
 24 39  1  0
 39 40  1  0
 40 41  1  0
 16 42  1  0
 42 43  1  0
 42 44  1  0
  8  6  1  0
 20 18  1  0
 41 39  1  0
  1 45  1  0
  1 46  1  0
  1 47  1  0
  2 48  1  0
  2 49  1  0
  3 50  1  0
  3 51  1  0
  4 52  1  0
  4 53  1  0
  5 54  1  0
  5 55  1  0
  6 56  1  0
  8 57  1  0
  9 58  1  0
  9 59  1  0
 10 60  1  0
 10 61  1  0
 11 62  1  0
 11 63  1  0
 12 64  1  0
 12 65  1  0
 13 66  1  0
 14 67  1  0
 14 68  1  0
 14 69  1  0
 15 70  1  0
 15 71  1  0
 16 72  1  0
 17 73  1  0
 17 74  1  0
 18 75  1  0
 19 76  1  0
 19 77  1  0
 20 78  1  0
 21 79  1  0
 21 80  1  0
 22 81  1  0
 22 82  1  0
 23 83  1  0
 23 84  1  0
 24 85  1  0
 26 86  1  0
 26 87  1  0
 27 88  1  0
 28 89  1  0
 28 90  1  0
 29 91  1  0
 30 92  1  0
 31 93  1  0
 31 94  1  0
 33 95  1  0
 34 96  1  0
 36 97  1  0
 37 98  1  0
 37 99  1  0
 38100  1  0
 38101  1  0
 38102  1  0
 39103  1  0
 40104  1  0
 40105  1  0
 41106  1  0
 41107  1  0
 42108  1  0
 43109  1  0
 43110  1  0
 43111  1  0
 44112  1  0
M  RAD  2  32   2  34   2
M  END
$$$$
