
     RDKit          2D

107118  0  0  0  0  0  0  0  0999 V2000
    7.1641    3.7077    0.0000 C   0  0  0  0  0  0  0  0  0  0  0  0
    6.2000    2.5586    0.0000 C   0  0  0  0  0  0  0  0  0  0  0  0
    5.2358    1.4095    0.0000 C   0  0  0  0  0  0  0  0  0  0  0  0
    4.2716    0.2605    0.0000 C   0  0  0  0  0  0  0  0  0  0  0  0
    3.3074   -0.8886    0.0000 C   0  0  0  0  0  0  0  0  0  0  0  0
    2.7944   -2.2981    0.0000 C   0  0  0  0  0  0  0  0  0  0  0  0
    1.3172   -2.5586    0.0000 C   0  0  0  0  0  0  0  0  0  0  0  0
    0.3530   -1.4095    0.0000 C   0  0  0  0  0  0  0  0  0  0  0  0
    0.8660    0.0000    0.0000 C   0  0  0  0  0  0  0  0  0  0  0  0
   -0.4330    0.7500    0.0000 C   0  0  0  0  0  0  0  0  0  0  0  0
   -0.9460    2.1595    0.0000 C   0  0  0  0  0  0  0  0  0  0  0  0
   -0.4330    3.5691    0.0000 C   0  0  0  0  0  0  0  0  0  0  0  0
    0.8660    4.3191    0.0000 C   0  0  0  0  0  0  0  0  0  0  0  0
    2.3432    4.0586    0.0000 C   0  0  0  0  0  0  0  0  0  0  0  0
    3.3074    2.9095    0.0000 C   0  0  0  0  0  0  0  0  0  0  0  0
    3.3074    1.4095    0.0000 C   0  0  0  0  0  0  0  0  0  0  0  0
    2.3432    0.2605    0.0000 C   0  0  0  0  0  0  0  0  0  0  0  0
    0.9441   -0.6841    0.0000 C   0  0  0  0  0  0  0  0  0  0  0  0
   -0.4330   -0.7500    0.0000 C   0  0  0  0  0  0  0  0  0  0  0  0
    4.3111    4.0243    0.0000 C   0  0  0  0  0  0  0  0  0  0  0  0
    5.8111    4.0243    0.0000 C   0  0  0  0  0  0  0  0  0  0  0  0
    6.5611    5.3233    0.0000 C   0  0  0  0  0  0  0  0  0  0  0  0
    5.8111    6.6223    0.0000 C   0  0  0  0  0  0  0  0  0  0  0  0
    4.3111    6.6223    0.0000 C   0  0  0  0  0  0  0  0  0  0  0  0
    3.5611    5.3233    0.0000 C   0  0  0  0  0  0  0  0  0  0  0  0
    1.8302    5.4681    0.0000 C   0  0  0  0  0  0  0  0  0  0  0  0
    2.0907    6.9454    0.0000 Mg  0  0  0  0  0  2  0  0  0  0  0  0
    7.3111    4.0243    0.0000 C   0  0  0  0  0  0  0  0  0  0  0  0
    8.7207    4.5373    0.0000 C   0  0  0  0  0  0  0  0  0  0  0  0
   10.1302    5.0503    0.0000 C   0  0  0  0  0  0  0  0  0  0  0  0
   11.5397    5.5633    0.0000 C   0  0  0  0  0  0  0  0  0  0  0  0
   13.0397    5.5633    0.0000 C   0  0  0  0  0  0  0  0  0  0  0  0
   12.2897    4.2643    0.0000 C   0  0  0  0  0  0  0  0  0  0  0  0
   13.4388    3.3001    0.0000 C   0  0  0  0  0  0  0  0  0  0  0  0
   14.0727    4.6596    0.0000 C   0  0  0  0  0  0  0  0  0  0  0  0
   15.4823    5.1726    0.0000 C   0  0  0  0  0  0  0  0  0  0  0  0
   16.8417    4.5387    0.0000 C   0  0  0  0  0  0  0  0  0  0  0  0
   17.3548    3.1292    0.0000 C   0  0  0  0  0  0  0  0  0  0  0  0
   18.2151    1.9004    0.0000 C   0  0  0  0  0  0  0  0  0  0  0  0
   16.2048    0.5967    0.0000 C   0  0  0  0  0  0  0  0  0  0  0  0
   14.7048    0.5933    0.0000 C   0  0  0  0  0  0  0  0  0  0  0  0
   13.9518    1.8906    0.0000 C   0  0  0  0  0  0  0  0  0  0  0  0
   15.3113    1.2567    0.0000 C   0  0  0  0  0  0  0  0  0  0  0  0
   14.3471    0.1076    0.0000 O   0  0  0  0  0  0  0  0  0  0  0  0
   16.7208    1.7697    0.0000 C   0  0  0  0  0  0  0  0  0  0  0  0
    8.3777    4.5893    0.0000 H   0  0  0  0  0  0  0  0  0  0  0  0
    8.1871    2.6106    0.0000 H   0  0  0  0  0  0  0  0  0  0  0  0
    6.1412    4.8047    0.0000 H   0  0  0  0  0  0  0  0  0  0  0  0
    5.0509    3.5228    0.0000 H   0  0  0  0  0  0  0  0  0  0  0  0
    7.3490    1.5944    0.0000 H   0  0  0  0  0  0  0  0  0  0  0  0
    4.0867    2.3737    0.0000 H   0  0  0  0  0  0  0  0  0  0  0  0
    6.3848    0.4454    0.0000 H   0  0  0  0  0  0  0  0  0  0  0  0
    3.3900    1.4740    0.0000 H   0  0  0  0  0  0  0  0  0  0  0  0
    5.4207   -0.7037    0.0000 H   0  0  0  0  0  0  0  0  0  0  0  0
    4.6065   -1.6386    0.0000 H   0  0  0  0  0  0  0  0  0  0  0  0
    4.2716   -2.5586    0.0000 H   0  0  0  0  0  0  0  0  0  0  0  0
    2.7944   -3.7981    0.0000 H   0  0  0  0  0  0  0  0  0  0  0  0
    1.8302   -3.9681    0.0000 H   0  0  0  0  0  0  0  0  0  0  0  0
    0.1192   -3.4614    0.0000 H   0  0  0  0  0  0  0  0  0  0  0  0
   -0.4639   -2.6676    0.0000 H   0  0  0  0  0  0  0  0  0  0  0  0
   -1.0889   -0.9962    0.0000 H   0  0  0  0  0  0  0  0  0  0  0  0
   -1.8675    0.3114    0.0000 H   0  0  0  0  0  0  0  0  0  0  0  0
   -2.2494    1.4171    0.0000 H   0  0  0  0  0  0  0  0  0  0  0  0
   -2.2494    2.9019    0.0000 H   0  0  0  0  0  0  0  0  0  0  0  0
   -1.9087    3.8382    0.0000 H   0  0  0  0  0  0  0  0  0  0  0  0
   -0.9543    4.9756    0.0000 H   0  0  0  0  0  0  0  0  0  0  0  0
    0.0491    5.5771    0.0000 H   0  0  0  0  0  0  0  0  0  0  0  0
    3.7852    4.4720    0.0000 H   0  0  0  0  0  0  0  0  0  0  0  0
    4.5509    3.7484    0.0000 H   0  0  0  0  0  0  0  0  0  0  0  0
    4.5976    2.1747    0.0000 H   0  0  0  0  0  0  0  0  0  0  0  0
    4.4104    0.3930    0.0000 H   0  0  0  0  0  0  0  0  0  0  0  0
    0.1315   -2.6560    0.0000 H   0  0  0  0  0  0  0  0  0  0  0  0
    2.0921   -2.3280    0.0000 H   0  0  0  0  0  0  0  0  0  0  0  0
   -1.3358   -1.9479    0.0000 H   0  0  0  0  0  0  0  0  0  0  0  0
    4.7496    2.5898    0.0000 H   0  0  0  0  0  0  0  0  0  0  0  0
    6.3488    2.6239    0.0000 H   0  0  0  0  0  0  0  0  0  0  0  0
    5.3632    4.4205    0.0000 H   0  0  0  0  0  0  0  0  0  0  0  0
    6.5611    7.9214    0.0000 H   0  0  0  0  0  0  0  0  0  0  0  0
    3.5611    7.9214    0.0000 H   0  0  0  0  0  0  0  0  0  0  0  0
    2.9993    6.7141    0.0000 H   0  0  0  0  0  0  0  0  0  0  0  0
    2.3512    8.4226    0.0000 H   0  0  0  0  0  0  0  0  0  0  0  0
    7.7497    2.5898    0.0000 H   0  0  0  0  0  0  0  0  0  0  0  0
    9.2337    3.1277    0.0000 H   0  0  0  0  0  0  0  0  0  0  0  0
    8.2076    5.9468    0.0000 H   0  0  0  0  0  0  0  0  0  0  0  0
    9.6172    6.4599    0.0000 H   0  0  0  0  0  0  0  0  0  0  0  0
   10.4676    3.5888    0.0000 H   0  0  0  0  0  0  0  0  0  0  0  0
   11.2793    7.0406    0.0000 H   0  0  0  0  0  0  0  0  0  0  0  0
   13.3002    7.0406    0.0000 H   0  0  0  0  0  0  0  0  0  0  0  0
   14.5315    5.4066    0.0000 H   0  0  0  0  0  0  0  0  0  0  0  0
   11.2668    3.1673    0.0000 H   0  0  0  0  0  0  0  0  0  0  0  0
   12.2101    2.4398    0.0000 H   0  0  0  0  0  0  0  0  0  0  0  0
   13.7608    6.1268    0.0000 H   0  0  0  0  0  0  0  0  0  0  0  0
   12.8908    5.5832    0.0000 H   0  0  0  0  0  0  0  0  0  0  0  0
   16.2992    6.4306    0.0000 H   0  0  0  0  0  0  0  0  0  0  0  0
   14.7781    6.4971    0.0000 H   0  0  0  0  0  0  0  0  0  0  0  0
   18.3360    4.6694    0.0000 H   0  0  0  0  0  0  0  0  0  0  0  0
   17.2803    5.9731    0.0000 H   0  0  0  0  0  0  0  0  0  0  0  0
   18.6853    3.8218    0.0000 H   0  0  0  0  0  0  0  0  0  0  0  0
   19.5746    1.2665    0.0000 H   0  0  0  0  0  0  0  0  0  0  0  0
   15.9478   -0.8811    0.0000 H   0  0  0  0  0  0  0  0  0  0  0  0
   17.5429   -0.0812    0.0000 H   0  0  0  0  0  0  0  0  0  0  0  0
   13.2440    0.2525    0.0000 H   0  0  0  0  0  0  0  0  0  0  0  0
   14.9687   -0.8833    0.0000 H   0  0  0  0  0  0  0  0  0  0  0  0
   12.7306    1.0196    0.0000 H   0  0  0  0  0  0  0  0  0  0  0  0
   15.8488   -0.1437    0.0000 H   0  0  0  0  0  0  0  0  0  0  0  0
   12.8508    0.0029    0.0000 H   0  0  0  0  0  0  0  0  0  0  0  0
   17.2216    0.3557    0.0000 H   0  0  0  0  0  0  0  0  0  0  0  0
  1  2  1  0
  2  3  1  0
  3  4  1  0
  4  5  1  0
  5  6  1  0
  6  7  1  0
  7  8  1  0
  8  9  1  0
  9 10  1  0
 10 11  1  0
 11 12  1  0
 12 13  1  0
 13 14  1  0
 14 15  1  0
 15 16  1  0
 16 17  1  0
 17 18  1  0
 18 19  1  0
 15 20  1  0
 20 21  1  0
 21 22  1  0
 22 23  1  0
 23 24  2  0
 24 25  1  0
 25 26  1  0
 26 27  1  0
 22 28  1  0
 28 29  1  0
 29 30  1  0
 30 31  1  0
 31 32  1  0
 32 33  1  0
 33 34  1  0
 34 35  1  0
 35 36  1  0
 36 37  1  0
 37 38  1  0
 38 39  1  0
 39 40  1  0
 40 41  1  0
 41 42  1  0
 42 43  1  0
 43 44  1  0
 43 45  1  0
 17  5  1  0
 25 20  1  0
 33 31  1  0
 42 34  1  0
 17  9  1  0
 28 21  1  0
 45 38  1  0
 19  9  1  0
 45 39  1  0
 19 10  1  0
 26 13  1  0
 26 14  1  0
  1 46  1  0
  1 47  1  0
  1 48  1  0
  2 49  1  0
  2 50  1  0
  3 51  1  0
  3 52  1  0
  4 53  1  0
  4 54  1  0
  5 55  1  0
  6 56  1  0
  6 57  1  0
  7 58  1  0
  7 59  1  0
  8 60  1  0
  8 61  1  0
 10 62  1  0
 11 63  1  0
 11 64  1  0
 12 65  1  0
 12 66  1  0
 13 67  1  0
 14 68  1  0
 15 69  1  0
 16 70  1  0
 16 71  1  0
 18 72  1  0
 18 73  1  0
 19 74  1  0
 20 75  1  0
 21 76  1  0
 22 77  1  0
 23 78  1  0
 24 79  1  0
 25 80  1  0
 27 81  1  0
 28 82  1  0
 29 83  1  0
 29 84  1  0
 30 85  1  0
 30 86  1  0
 31 87  1  0
 32 88  1  0
 32 89  1  0
 33 90  1  0
 34 91  1  0
 35 92  1  0
 35 93  1  0
 36 94  1  0
 36 95  1  0
 37 96  1  0
 37 97  1  0
 38 98  1  0
 39 99  1  0
 40100  1  0
 40101  1  0
 41102  1  0
 41103  1  0
 42104  1  0
 43105  1  0
 44106  1  0
 45107  1  0
M  END
$$$$
