
     RDKit          2D

 54 58  0  0  0  0  0  0  0  0999 V2000
    2.7944    2.2981    0.0000 C   0  0  0  0  0  0  0  0  0  0  0  0
    1.8302    1.1491    0.0000 C   0  0  0  0  0  0  0  0  0  0  0  0
    0.8660    0.0000    0.0000 C   0  0  0  0  0  0  0  0  0  0  0  0
   -0.4330    0.7500    0.0000 C   0  0  0  0  0  0  0  0  0  0  0  0
   -0.4330   -0.7500    0.0000 C   0  0  0  0  0  0  0  0  0  0  0  0
   -0.4330   -2.2500    0.0000 C   0  0  0  0  0  0  0  0  0  0  0  0
   -1.7321    0.0000    0.0000 C   0  0  0  0  0  0  0  0  0  0  0  0
   -3.0311   -0.7500    0.0000 C   0  0  0  0  0  0  0  0  0  0  0  0
   -3.0311    0.7500    0.0000 C   0  0  0  0  0  0  0  0  0  0  0  0
   -4.5083    1.0105    0.0000 C   0  0  0  0  0  0  0  0  0  0  0  0
   -5.9855    1.2709    0.0000 N   0  0  0  0  0  0  0  0  0  0  0  0
   -6.4985    2.6805    0.0000 C   0  0  0  0  0  0  0  0  0  0  0  0
   -7.7976    1.9305    0.0000 O   0  0  0  0  0  0  0  0  0  0  0  0
   -9.0966    2.6805    0.0000 C   0  0  0  0  0  0  0  0  0  0  0  0
   -9.0966    4.1805    0.0000 C   0  0  0  0  0  0  0  0  0  0  0  0
   -7.7976    4.9305    0.0000 C   0  0  0  0  0  0  0  0  0  0  0  0
   -6.4985    4.1805    0.0000 C   0  0  0  0  0  0  0  0  0  0  0  0
   -5.0213    3.9200    0.0000 Sb  0  0  0  0  0  3  0  0  0  0  0  0
   -4.0571    5.0691    0.0000 C   0  0  0  0  0  0  0  0  0  0  0  0
   -3.0930    6.2181    0.0000 C   0  0  0  0  0  0  0  0  0  0  0  0
   -2.5799    7.6277    0.0000 C   0  0  0  0  0  0  0  0  0  0  0  0
   -4.0571    7.3672    0.0000 C   0  0  0  0  0  0  0  0  0  0  0  0
    3.7586    3.4472    0.0000 H   0  0  0  0  0  0  0  0  0  0  0  0
    3.9435    1.3340    0.0000 H   0  0  0  0  0  0  0  0  0  0  0  0
    1.6453    3.2623    0.0000 H   0  0  0  0  0  0  0  0  0  0  0  0
    0.6811    2.1132    0.0000 H   0  0  0  0  0  0  0  0  0  0  0  0
    2.9793    0.1849    0.0000 H   0  0  0  0  0  0  0  0  0  0  0  0
    1.8302   -1.1491    0.0000 H   0  0  0  0  0  0  0  0  0  0  0  0
   -0.4330    2.2500    0.0000 H   0  0  0  0  0  0  0  0  0  0  0  0
   -0.4330   -3.7500    0.0000 H   0  0  0  0  0  0  0  0  0  0  0  0
   -1.7729   -2.4146    0.0000 H   0  0  0  0  0  0  0  0  0  0  0  0
    1.0670   -2.2500    0.0000 H   0  0  0  0  0  0  0  0  0  0  0  0
   -2.7274   -2.0654    0.0000 H   0  0  0  0  0  0  0  0  0  0  0  0
   -4.3221   -1.1447    0.0000 H   0  0  0  0  0  0  0  0  0  0  0  0
   -2.5181    2.1595    0.0000 H   0  0  0  0  0  0  0  0  0  0  0  0
   -4.0635    2.0094    0.0000 H   0  0  0  0  0  0  0  0  0  0  0  0
   -4.9030   -0.2805    0.0000 H   0  0  0  0  0  0  0  0  0  0  0  0
   -6.9497    0.1219    0.0000 H   0  0  0  0  0  0  0  0  0  0  0  0
   -5.3020    2.8915    0.0000 H   0  0  0  0  0  0  0  0  0  0  0  0
  -10.5738    2.9410    0.0000 H   0  0  0  0  0  0  0  0  0  0  0  0
   -9.6096    1.2709    0.0000 H   0  0  0  0  0  0  0  0  0  0  0  0
   -9.6096    5.5900    0.0000 H   0  0  0  0  0  0  0  0  0  0  0  0
  -10.5738    3.9200    0.0000 H   0  0  0  0  0  0  0  0  0  0  0  0
   -7.0166    5.8612    0.0000 H   0  0  0  0  0  0  0  0  0  0  0  0
   -8.7618    6.0796    0.0000 H   0  0  0  0  0  0  0  0  0  0  0  0
   -6.2253    5.3644    0.0000 H   0  0  0  0  0  0  0  0  0  0  0  0
   -4.5755    3.2592    0.0000 H   0  0  0  0  0  0  0  0  0  0  0  0
   -5.2062    6.0333    0.0000 H   0  0  0  0  0  0  0  0  0  0  0  0
   -2.9081    4.1049    0.0000 H   0  0  0  0  0  0  0  0  0  0  0  0
   -1.7939    5.4681    0.0000 H   0  0  0  0  0  0  0  0  0  0  0  0
   -1.1027    7.3672    0.0000 H   0  0  0  0  0  0  0  0  0  0  0  0
   -2.5799    9.1277    0.0000 H   0  0  0  0  0  0  0  0  0  0  0  0
   -4.5702    8.7768    0.0000 H   0  0  0  0  0  0  0  0  0  0  0  0
   -5.4379    6.7812    0.0000 H   0  0  0  0  0  0  0  0  0  0  0  0
  1  2  1  0
  2  3  1  0
  3  4  1  0
  4  5  1  0
  5  6  1  0
  5  7  1  0
  7  8  1  0
  8  9  1  0
  9 10  1  0
 10 11  1  0
 11 12  1  0
 12 13  1  0
 13 14  1  0
 14 15  1  0
 15 16  1  0
 16 17  1  0
 17 18  1  0
 18 19  1  0
 19 20  1  0
 20 21  1  0
 21 22  1  0
  5  3  1  0
  9  7  1  0
 17 12  1  0
 22 20  1  0
  7  4  1  0
  1 23  1  0
  1 24  1  0
  1 25  1  0
  2 26  1  0
  2 27  1  0
  3 28  1  0
  4 29  1  0
  6 30  1  0
  6 31  1  0
  6 32  1  0
  8 33  1  0
  8 34  1  0
  9 35  1  0
 10 36  1  0
 10 37  1  0
 11 38  1  0
 12 39  1  0
 14 40  1  0
 14 41  1  0
 15 42  1  0
 15 43  1  0
 16 44  1  0
 16 45  1  0
 17 46  1  0
 18 47  1  0
 19 48  1  0
 19 49  1  0
 20 50  1  0
 21 51  1  0
 21 52  1  0
 22 53  1  0
 22 54  1  0
M  END
$$$$
