
     RDKit          2D

 52 56  0  0  0  0  0  0  0  0999 V2000
    6.2417    1.6994    0.0000 C   0  0  0  0  0  0  0  0  0  0  0  0
    4.7907    1.3190    0.0000 C   0  0  0  0  0  0  0  0  0  0  0  0
    3.8405    0.1584    0.0000 C   0  0  0  0  0  0  0  0  0  0  0  0
    2.3895   -0.2220    0.0000 C   0  0  0  0  0  0  0  0  0  0  0  0
    0.8660    0.0000    0.0000 C   0  0  0  0  0  0  0  0  0  0  0  0
    2.1651    0.7500    0.0000 C   0  0  0  0  0  0  0  0  0  0  0  0
    3.6423    1.0105    0.0000 C   0  0  0  0  0  0  0  0  0  0  0  0
    2.1651    2.2500    0.0000 C   0  0  0  0  0  0  0  0  0  0  0  0
    3.2798    3.2537    0.0000 C   0  0  0  0  0  0  0  0  0  0  0  0
    2.6697    4.6240    0.0000 C   0  0  0  0  0  0  0  0  0  0  0  0
    1.1779    4.4672    0.0000 C   0  0  0  0  0  0  0  0  0  0  0  0
    0.8660    3.0000    0.0000 C   0  0  0  0  0  0  0  0  0  0  0  0
   -0.3475    3.8817    0.0000 O   0  0  0  0  0  0  0  0  0  0  0  0
   -0.4330    2.2500    0.0000 C   0  0  0  0  0  0  0  0  0  0  0  0
   -0.4330    0.7500    0.0000 C   0  0  0  0  0  0  0  0  0  0  0  0
   -1.9330    0.7500    0.0000 C   0  0  0  0  0  0  0  0  0  0  0  0
   -1.9330   -0.7500    0.0000 C   0  0  0  0  0  0  0  0  0  0  0  0
   -0.4330   -0.7500    0.0000 C   0  0  0  0  0  0  0  0  0  0  0  0
    4.0671    4.0789    0.0000 N   0  0  0  0  0  0  0  0  0  0  0  0
    4.8773    2.8165    0.0000 Si  0  0  0  0  0  4  0  0  0  0  0  0
    5.8275    3.9771    0.0000 C   0  0  0  0  0  0  0  0  0  0  0  0
    7.6926    2.0799    0.0000 H   0  0  0  0  0  0  0  0  0  0  0  0
    6.5840    0.3936    0.0000 H   0  0  0  0  0  0  0  0  0  0  0  0
    5.8613    3.1504    0.0000 H   0  0  0  0  0  0  0  0  0  0  0  0
    5.6529    0.2802    0.0000 H   0  0  0  0  0  0  0  0  0  0  0  0
    5.1611   -0.5530    0.0000 H   0  0  0  0  0  0  0  0  0  0  0  0
    3.7774   -0.9333    0.0000 H   0  0  0  0  0  0  0  0  0  0  0  0
    2.8635   -1.2074    0.0000 H   0  0  0  0  0  0  0  0  0  0  0  0
    1.4393   -1.3826    0.0000 H   0  0  0  0  0  0  0  0  0  0  0  0
    2.6109    0.0891    0.0000 H   0  0  0  0  0  0  0  0  0  0  0  0
    5.0126    1.6207    0.0000 H   0  0  0  0  0  0  0  0  0  0  0  0
    4.4149   -0.2752    0.0000 H   0  0  0  0  0  0  0  0  0  0  0  0
    4.1060    2.4370    0.0000 H   0  0  0  0  0  0  0  0  0  0  0  0
    3.6423    1.9896    0.0000 H   0  0  0  0  0  0  0  0  0  0  0  0
    4.4289    2.2896    0.0000 H   0  0  0  0  0  0  0  0  0  0  0  0
    4.7217    3.6671    0.0000 H   0  0  0  0  0  0  0  0  0  0  0  0
    3.4197    5.9231    0.0000 H   0  0  0  0  0  0  0  0  0  0  0  0
    1.1779    5.9672    0.0000 H   0  0  0  0  0  0  0  0  0  0  0  0
   -0.1586    5.1483    0.0000 H   0  0  0  0  0  0  0  0  0  0  0  0
   -0.3737    5.3814    0.0000 H   0  0  0  0  0  0  0  0  0  0  0  0
   -1.9310    2.1715    0.0000 H   0  0  0  0  0  0  0  0  0  0  0  0
   -1.2719    3.4935    0.0000 H   0  0  0  0  0  0  0  0  0  0  0  0
   -3.4330    0.7500    0.0000 H   0  0  0  0  0  0  0  0  0  0  0  0
   -2.1159    2.2388    0.0000 H   0  0  0  0  0  0  0  0  0  0  0  0
   -1.9330   -2.2500    0.0000 H   0  0  0  0  0  0  0  0  0  0  0  0
   -3.4330   -0.7500    0.0000 H   0  0  0  0  0  0  0  0  0  0  0  0
   -0.0448   -2.1989    0.0000 H   0  0  0  0  0  0  0  0  0  0  0  0
    4.8688    5.3467    0.0000 H   0  0  0  0  0  0  0  0  0  0  0  0
    6.3651    2.6258    0.0000 H   0  0  0  0  0  0  0  0  0  0  0  0
    6.7778    5.1378    0.0000 H   0  0  0  0  0  0  0  0  0  0  0  0
    6.9882    3.0269    0.0000 H   0  0  0  0  0  0  0  0  0  0  0  0
    4.7914    5.0618    0.0000 H   0  0  0  0  0  0  0  0  0  0  0  0
  1  2  1  0
  2  3  1  0
  3  4  1  0
  4  5  1  0
  5  6  1  0
  6  7  1  0
  6  8  1  0
  8  9  1  0
  9 10  1  0
 10 11  1  0
 11 12  1  0
 12 13  1  0
 12 14  1  0
 14 15  1  0
 15 16  1  0
 16 17  1  0
 17 18  1  0
 10 19  1  0
 19 20  1  0
 20 21  1  0
 20  2  1  0
 15  5  1  0
 18  5  1  0
 12  8  1  0
 18 15  1  0
  1 22  1  0
  1 23  1  0
  1 24  1  0
  2 25  1  0
  3 26  1  0
  3 27  1  0
  4 28  1  0
  4 29  1  0
  6 30  1  0
  7 31  1  0
  7 32  1  0
  7 33  1  0
  8 34  1  0
  9 35  1  0
  9 36  1  0
 10 37  1  0
 11 38  1  0
 11 39  1  0
 13 40  1  0
 14 41  1  0
 14 42  1  0
 16 43  1  0
 16 44  1  0
 17 45  1  0
 17 46  1  0
 18 47  1  0
 19 48  1  0
 20 49  1  0
 21 50  1  0
 21 51  1  0
 21 52  1  0
M  END
$$$$
